  
       XFOIL         Version 6.99
  
 Calculated polar for: airfoil_01.dat                                  
  
 1 1 Reynolds number fixed          Mach number fixed         
  
 xtrf =   1.000 (top)        1.000 (bottom)  
 Mach =   0.000     Re =     1.000 e 6     Ncrit =   9.000
  
   alpha    CL        CD       CDp       CM     Top_Xtr  Bot_Xtr
  ------ -------- --------- --------- -------- -------- --------
   0.000   0.2666   0.00637   0.00171  -0.0528   0.6500   0.6470
   0.250   0.2949   0.00655   0.00185  -0.0529   0.6404   0.6495
   0.500   0.3230   0.00658   0.00189  -0.0530   0.6331   0.6594
   0.750   0.3496   0.00683   0.00238  -0.0523   0.6314   0.6874
   1.000   0.3779   0.00681   0.00235  -0.0525   0.6290   0.6886
   1.250   0.4061   0.00679   0.00234  -0.0526   0.6253   0.6899
   1.500   0.4344   0.00680   0.00234  -0.0528   0.6216   0.6911
   1.750   0.4626   0.00681   0.00234  -0.0530   0.6174   0.6921
   2.000   0.4905   0.00683   0.00234  -0.0531   0.6122   0.6929
   2.250   0.5179   0.00687   0.00235  -0.0531   0.6057   0.6937
   2.500   0.5446   0.00693   0.00236  -0.0530   0.5963   0.6945
   2.750   0.5717   0.00701   0.00240  -0.0529   0.5850   0.6951
   3.000   0.5999   0.00699   0.00241  -0.0531   0.5816   0.6956
   3.250   0.6279   0.00699   0.00243  -0.0533   0.5753   0.6961
   3.500   0.6545   0.00705   0.00245  -0.0531   0.5599   0.6965
   3.750   0.6781   0.00720   0.00248  -0.0524   0.5343   0.6969
   4.000   0.6987   0.00749   0.00256  -0.0511   0.4858   0.6973
   4.250   0.7143   0.00806   0.00283  -0.0490   0.4124   0.6976
   4.500   0.7298   0.00869   0.00313  -0.0469   0.3438   0.6979
   4.750   0.7483   0.00917   0.00338  -0.0454   0.2972   0.6982
   5.000   0.7673   0.00960   0.00362  -0.0440   0.2609   0.6984
   5.250   0.7889   0.00988   0.00380  -0.0430   0.2387   0.6986
   5.500   0.8090   0.01023   0.00402  -0.0418   0.2122   0.6988
   5.750   0.8296   0.01053   0.00422  -0.0407   0.1949   0.6990
   6.000   0.8495   0.01086   0.00444  -0.0395   0.1737   0.6992
   6.250   0.8707   0.01108   0.00459  -0.0385   0.1624   0.7004
   6.500   0.8893   0.01134   0.00477  -0.0370   0.1514   0.7017
   6.750   0.9077   0.01158   0.00495  -0.0355   0.1370   0.7031
   7.000   0.9280   0.01176   0.00512  -0.0343   0.1321   0.7047
   7.250   0.9460   0.01207   0.00535  -0.0328   0.1231   0.7062
   7.500   0.9654   0.01234   0.00559  -0.0315   0.1175   0.7081
   7.750   0.9843   0.01264   0.00586  -0.0302   0.1063   0.7101
   8.000   1.0048   0.01286   0.00610  -0.0291   0.1043   0.7124
   8.250   1.0260   0.01306   0.00651  -0.0281   0.1095   0.7151
   8.500   1.0448   0.01336   0.00688  -0.0268   0.1088   0.7178
   8.750   1.0649   0.01361   0.00717  -0.0258   0.1059   0.7207
   9.000   1.0851   0.01385   0.00748  -0.0248   0.1051   0.7237
   9.250   1.1046   0.01411   0.00776  -0.0237   0.1020   0.7265
   9.500   1.1214   0.01449   0.00811  -0.0222   0.0954   0.7296
   9.750   1.1359   0.01502   0.00856  -0.0205   0.0863   0.7324
  10.000   1.1517   0.01548   0.00906  -0.0189   0.0808   0.7354
  10.250   1.1691   0.01586   0.00948  -0.0176   0.0781   0.7380
  10.500   1.1874   0.01621   0.00987  -0.0165   0.0771   0.7409
  10.750   1.2049   0.01662   0.01030  -0.0154   0.0748   0.7435
  11.000   1.2214   0.01711   0.01079  -0.0142   0.0715   0.7454
  11.250   1.2342   0.01777   0.01139  -0.0125   0.0659   0.7470
  11.500   1.2476   0.01838   0.01202  -0.0110   0.0615   0.7553
  11.750   1.2614   0.01898   0.01270  -0.0096   0.0544   0.7665
  12.000   1.2754   0.01958   0.01335  -0.0082   0.0523   0.7759
  12.250   1.2869   0.02035   0.01413  -0.0066   0.0479   0.7855
  12.750   1.3078   0.02205   0.01588  -0.0035   0.0374   0.8200
  13.000   1.3186   0.02272   0.01673  -0.0018   0.0358   0.8596
  13.250   1.3452   0.02352   0.01775  -0.0038   0.0323   1.0000
  13.500   1.3578   0.02443   0.01867  -0.0028   0.0306   1.0000
  13.750   1.3648   0.02572   0.01994  -0.0014   0.0269   1.0000
  14.000   1.3712   0.02703   0.02121  -0.0001   0.0212   1.0000
  14.250   1.3590   0.02987   0.02386   0.0025   0.0081   1.0000
  14.750   1.3601   0.03412   0.02838   0.0056   0.0034   1.0000
  15.000   1.3668   0.03575   0.03010   0.0063   0.0034   1.0000
  15.250   1.3697   0.03778   0.03226   0.0071   0.0034   1.0000
  15.500   1.3736   0.03974   0.03433   0.0078   0.0034   1.0000
  15.750   1.3729   0.04221   0.03697   0.0087   0.0034   1.0000
  16.000   1.3701   0.04496   0.03984   0.0091   0.0035   1.0000
  16.250   1.3715   0.04728   0.04228   0.0095   0.0035   1.0000
  16.500   1.3711   0.04983   0.04494   0.0098   0.0035   1.0000
  16.750   1.3619   0.05332   0.04858   0.0098   0.0036   1.0000
  17.000   1.3608   0.05614   0.05150   0.0097   0.0036   1.0000
  17.250   1.3536   0.05987   0.05538   0.0094   0.0037   1.0000
  17.500   1.3512   0.06323   0.05889   0.0086   0.0036   1.0000
  17.750   1.3419   0.06761   0.06342   0.0077   0.0037   1.0000
  18.000   1.3338   0.07209   0.06802   0.0063   0.0037   1.0000
  18.250   1.3202   0.07747   0.07355   0.0045   0.0038   1.0000
  18.500   1.3087   0.08283   0.07904   0.0023   0.0038   1.0000
  18.750   1.2985   0.08796   0.08430   0.0001   0.0038   1.0000
  19.000   1.2797   0.09478   0.09127  -0.0031   0.0039   1.0000
  19.250   1.2588   0.10203   0.09869  -0.0069   0.0040   1.0000
  19.500   1.2479   0.10751   0.10426  -0.0099   0.0039   1.0000
  19.750   1.2258   0.11506   0.11196  -0.0142   0.0039   1.0000
  20.000   1.2011   0.12293   0.11998  -0.0190   0.0040   1.0000
