xflr5 v6.47

Plane Name
T4-3.0°-VLM1-17.3kg-x0.0m
QInf  =   10.000000 m/s
Alpha =    3.000000
Beta  =    0.000°
Phi   =    0.000°
Ctrl  =    0.000
CL    =    0.308839
Cy    =    0.000000
Cd    =    0.016282     ICd   =    0.007371     PCd   =    0.008911
Cl   = 2.24791e-17
Cm   =  -0.0882582
ICn   =    0.000000     PCn   =   -0.000000 
XCP   =    0.443829     YCP   =   -0.000000     ZCP   =    0.026776  
XNP   =    0.000000
Bending =   98.217024

Main Wing
  y-span        Chord      Ai         Cl        PCd          ICd        CmGeom    CmAirf@chord/4    XTrtop    XTrBot      XCP       BM
   -2.9949     1.0017    -1.779    0.083948    0.009602    0.007860   -0.032154   -0.011719     0.5153    0.5183    0.3937    0.0000
   -2.9744     1.0085    -1.668    0.113271    0.009595    0.005086   -0.035936   -0.007798     0.5033    0.5309    0.3194    0.0011
   -2.9336     1.0221    -1.598    0.150277    0.009587    0.004730   -0.044122   -0.006582     0.4877    0.5464    0.2939    0.0120
   -2.8728     1.0424    -1.529    0.186425    0.009568    0.005180   -0.053220   -0.006565     0.4732    0.5605    0.2852    0.0574
   -2.7924     1.0692    -1.461    0.219162    0.009535    0.005681   -0.061969   -0.007079     0.4603    0.5720    0.2822    0.1852
   -2.6929     1.1024    -1.397    0.247530    0.009507    0.006080   -0.069835   -0.007817     0.4485    0.5820    0.2815    0.4720
   -2.5750     1.1417    -1.340    0.271252    0.009436    0.006365   -0.076576   -0.008599     0.4381    0.5908    0.2816    1.0266
   -2.4395     1.1868    -1.293    0.290434    0.009376    0.006562   -0.082117   -0.009323     0.4287    0.5967    0.2820    1.9902
   -2.2873     1.2376    -1.257    0.305399    0.009308    0.006703   -0.086485   -0.009934     0.4213    0.5995    0.2824    3.5353
   -2.1195     1.2935    -1.233    0.316577    0.009231    0.006816   -0.089768   -0.010410     0.4153    0.5998    0.2828    5.8618
   -1.9372     1.3543    -1.223    0.324426    0.009154    0.006923   -0.092079   -0.010750     0.4103    0.5979    0.2830    9.1907
   -1.7417     1.4194    -1.224    0.329383    0.009061    0.007039   -0.093534   -0.010960     0.4060    0.5960    0.2832   13.7570
   -1.5343     1.4886    -1.238    0.331833    0.008967    0.007173   -0.094237   -0.011047     0.4019    0.5941    0.2832   19.8001
   -1.3165     1.5612    -1.264    0.332099    0.008887    0.007328   -0.094275   -0.011016     0.3979    0.5905    0.2831   27.5531
   -1.0896     1.6368    -1.301    0.330438    0.008805    0.007506   -0.093709   -0.010866     0.3942    0.5859    0.2828   37.2314
   -0.8553     1.7149    -1.350    0.327032    0.008704    0.007712   -0.092573   -0.010583     0.3936    0.5798    0.2823   49.0208
   -0.6151     1.7950    -1.413    0.321988    0.008596    0.007951   -0.090863   -0.010136     0.3938    0.5728    0.2814   63.0652
   -0.3708     1.8764    -1.495    0.315311    0.008514    0.008245   -0.088519   -0.009465     0.3937    0.5656    0.2799   79.4551
   -0.1239     1.9587    -1.613    0.306790    0.008431    0.008721   -0.085383   -0.008463     0.3941    0.5575    0.2775   98.2170
    0.1239     1.9587    -1.613    0.306790    0.008431    0.008721   -0.085383   -0.008463     0.3941    0.5575    0.2775   98.2170
    0.3708     1.8764    -1.495    0.315311    0.008514    0.008245   -0.088519   -0.009465     0.3937    0.5656    0.2799   79.4551
    0.6151     1.7950    -1.413    0.321988    0.008596    0.007951   -0.090863   -0.010136     0.3938    0.5728    0.2814   63.0652
    0.8553     1.7149    -1.350    0.327032    0.008704    0.007712   -0.092573   -0.010583     0.3936    0.5798    0.2823   49.0208
    1.0896     1.6368    -1.301    0.330438    0.008805    0.007506   -0.093709   -0.010866     0.3942    0.5859    0.2828   37.2314
    1.3165     1.5612    -1.264    0.332099    0.008887    0.007328   -0.094275   -0.011016     0.3979    0.5905    0.2831   27.5531
    1.5343     1.4886    -1.238    0.331833    0.008967    0.007173   -0.094237   -0.011047     0.4019    0.5941    0.2832   19.8001
    1.7417     1.4194    -1.224    0.329383    0.009061    0.007039   -0.093534   -0.010960     0.4060    0.5960    0.2832   13.7570
    1.9372     1.3543    -1.223    0.324426    0.009154    0.006923   -0.092079   -0.010750     0.4103    0.5979    0.2830    9.1907
    2.1195     1.2935    -1.233    0.316577    0.009231    0.006816   -0.089768   -0.010410     0.4153    0.5998    0.2828    5.8618
    2.2873     1.2376    -1.257    0.305399    0.009308    0.006703   -0.086485   -0.009934     0.4213    0.5995    0.2824    3.5353
    2.4395     1.1868    -1.293    0.290434    0.009376    0.006562   -0.082117   -0.009323     0.4287    0.5967    0.2820    1.9902
    2.5750     1.1417    -1.340    0.271252    0.009436    0.006365   -0.076576   -0.008599     0.4381    0.5908    0.2816    1.0266
    2.6929     1.1024    -1.397    0.247530    0.009507    0.006080   -0.069835   -0.007817     0.4485    0.5820    0.2815    0.4720
    2.7924     1.0692    -1.461    0.219162    0.009535    0.005681   -0.061969   -0.007079     0.4603    0.5720    0.2822    0.1852
    2.8728     1.0424    -1.529    0.186425    0.009568    0.005180   -0.053220   -0.006565     0.4732    0.5605    0.2852    0.0574
    2.9336     1.0221    -1.598    0.150277    0.009587    0.004730   -0.044122   -0.006582     0.4877    0.5464    0.2939    0.0120
    2.9744     1.0085    -1.668    0.113271    0.009595    0.005086   -0.035936   -0.007798     0.5033    0.5309    0.3194    0.0011
    2.9949     1.0017    -1.779    0.083948    0.009602    0.007860   -0.032154   -0.011719     0.5153    0.5183    0.3937    0.0000


Main Wing Cp Coefficients
 Panel     CtrlPt.x        CtrlPt.y        CtrlPt.z       Nx      Ny       Nz        Area       Cp
Main WingCp Coefficients
Strip 1
   0       9.981e-01      -2.995e+00       1.443e-04           0.040          -0.013           0.999       1.493e-04          0.0713
   1       9.764e-01      -2.995e+00       9.899e-04           0.039          -0.013           0.999       4.391e-04          0.0733
   2       9.272e-01      -2.995e+00       2.851e-03           0.036          -0.012           0.999       7.033e-04          0.0738
   3       8.532e-01      -2.995e+00       5.469e-03           0.033          -0.011           0.999       9.266e-04          0.0716
   4       7.586e-01      -2.995e+00       8.497e-03           0.029          -0.010           1.000       1.096e-03          0.0679
   5       6.492e-01      -2.995e+00       1.157e-02           0.025          -0.009           1.000       1.202e-03          0.0634
   6       5.310e-01      -2.995e+00       1.435e-02           0.020          -0.008           1.000       1.237e-03          0.0590
   7       4.112e-01      -2.995e+00       1.660e-02           0.015          -0.008           1.000       1.201e-03          0.0557
   8       2.965e-01      -2.995e+00       1.823e-02           0.011          -0.007           1.000       1.096e-03          0.0575
   9       1.937e-01      -2.995e+00       1.925e-02           0.007          -0.007           1.000       9.261e-04          0.0703
  10       1.088e-01      -2.995e+00       1.978e-02           0.004          -0.007           1.000       7.028e-04          0.1032
  11       4.667e-02      -2.995e+00       1.998e-02           0.001          -0.007           1.000       4.387e-04          0.1984
  12       1.092e-02      -2.995e+00       2.003e-02           0.000          -0.007           1.000       1.491e-04          0.6512
Strip 2
  13       1.005e+00      -2.974e+00       1.453e-04           0.040          -0.013           0.999       4.498e-04          0.0424
  14       9.831e-01      -2.974e+00       9.967e-04           0.039          -0.013           0.999       1.323e-03          0.0608
  15       9.335e-01      -2.974e+00       2.871e-03           0.036          -0.012           0.999       2.119e-03          0.0686
  16       8.590e-01      -2.974e+00       5.506e-03           0.033          -0.011           0.999       2.792e-03          0.0711
  17       7.638e-01      -2.974e+00       8.554e-03           0.029          -0.010           1.000       3.303e-03          0.0717
  18       6.536e-01      -2.974e+00       1.165e-02           0.025          -0.009           1.000       3.621e-03          0.0722
  19       5.347e-01      -2.974e+00       1.444e-02           0.020          -0.008           1.000       3.729e-03          0.0745
  20       4.140e-01      -2.974e+00       1.672e-02           0.015          -0.008           1.000       3.621e-03          0.0807
  21       2.985e-01      -2.974e+00       1.836e-02           0.011          -0.007           1.000       3.302e-03          0.0941
  22       1.951e-01      -2.974e+00       1.938e-02           0.007          -0.007           1.000       2.791e-03          0.1214
  23       1.096e-01      -2.974e+00       1.991e-02           0.004          -0.007           1.000       2.118e-03          0.1825
  24       4.698e-02      -2.974e+00       2.012e-02           0.001          -0.007           1.000       1.322e-03          0.3571
  25       1.099e-02      -2.974e+00       2.017e-02           0.000          -0.007           1.000       4.494e-04          1.0026
Strip 3
  26       1.018e+00      -2.934e+00       1.472e-04           0.040          -0.013           0.999       7.563e-04          0.0341
  27       9.963e-01      -2.934e+00       1.010e-03           0.039          -0.013           0.999       2.225e-03          0.0552
  28       9.461e-01      -2.934e+00       2.910e-03           0.036          -0.012           0.999       3.564e-03          0.0707
  29       8.705e-01      -2.934e+00       5.581e-03           0.033          -0.011           0.999       4.695e-03          0.0797
  30       7.741e-01      -2.934e+00       8.670e-03           0.029          -0.010           1.000       5.554e-03          0.0860
  31       6.624e-01      -2.934e+00       1.180e-02           0.025          -0.009           1.000       6.089e-03          0.0921
  32       5.419e-01      -2.934e+00       1.464e-02           0.020          -0.008           1.000       6.270e-03          0.1003
  33       4.196e-01      -2.934e+00       1.694e-02           0.015          -0.008           1.000       6.088e-03          0.1134
  34       3.026e-01      -2.934e+00       1.861e-02           0.011          -0.007           1.000       5.551e-03          0.1362
  35       1.977e-01      -2.934e+00       1.965e-02           0.007          -0.007           1.000       4.693e-03          0.1791
  36       1.110e-01      -2.934e+00       2.018e-02           0.004          -0.007           1.000       3.561e-03          0.2711
  37       4.762e-02      -2.934e+00       2.039e-02           0.001          -0.007           1.000       2.223e-03          0.5019
  38       1.114e-02      -2.934e+00       2.044e-02           0.000          -0.007           1.000       7.557e-04          1.2903
Strip 4
  39       1.039e+00      -2.873e+00       1.501e-04           0.040          -0.013           0.999       1.072e-03          0.0334
  40       1.016e+00      -2.873e+00       1.030e-03           0.039          -0.013           0.999       3.155e-03          0.0555
  41       9.648e-01      -2.873e+00       2.967e-03           0.036          -0.012           0.999       5.053e-03          0.0756
  42       8.878e-01      -2.873e+00       5.691e-03           0.033          -0.011           0.999       6.658e-03          0.0904
  43       7.895e-01      -2.873e+00       8.842e-03           0.029          -0.010           1.000       7.875e-03          0.1021
  44       6.755e-01      -2.873e+00       1.204e-02           0.025          -0.009           1.000       8.634e-03          0.1134
  45       5.526e-01      -2.873e+00       1.493e-02           0.020          -0.008           1.000       8.891e-03          0.1269
  46       4.279e-01      -2.873e+00       1.728e-02           0.015          -0.008           1.000       8.632e-03          0.1466
  47       3.086e-01      -2.873e+00       1.897e-02           0.011          -0.007           1.000       7.872e-03          0.1787
  48       2.016e-01      -2.873e+00       2.003e-02           0.007          -0.007           1.000       6.654e-03          0.2364
  49       1.132e-01      -2.873e+00       2.058e-02           0.004          -0.007           1.000       5.050e-03          0.3514
  50       4.856e-02      -2.873e+00       2.080e-02           0.001          -0.007           1.000       3.152e-03          0.6179
  51       1.136e-02      -2.873e+00       2.084e-02           0.000          -0.007           1.000       1.072e-03          1.5341
Strip 5
  52       1.065e+00      -2.792e+00       1.540e-04           0.040          -0.013           0.999       1.401e-03          0.0346
  53       1.042e+00      -2.792e+00       1.057e-03           0.039          -0.013           0.999       4.123e-03          0.0583
  54       9.897e-01      -2.792e+00       3.044e-03           0.036          -0.012           0.999       6.604e-03          0.0813
  55       9.106e-01      -2.792e+00       5.838e-03           0.033          -0.011           0.999       8.700e-03          0.1007
  56       8.098e-01      -2.792e+00       9.069e-03           0.029          -0.010           1.000       1.029e-02          0.1174
  57       6.929e-01      -2.792e+00       1.235e-02           0.025          -0.009           1.000       1.128e-02          0.1336
  58       5.668e-01      -2.792e+00       1.531e-02           0.020          -0.008           1.000       1.162e-02          0.1524
  59       4.389e-01      -2.792e+00       1.772e-02           0.015          -0.008           1.000       1.128e-02          0.1784
  60       3.165e-01      -2.792e+00       1.946e-02           0.011          -0.007           1.000       1.029e-02          0.2188
  61       2.068e-01      -2.792e+00       2.055e-02           0.007          -0.007           1.000       8.695e-03          0.2880
  62       1.161e-01      -2.792e+00       2.111e-02           0.004          -0.007           1.000       6.599e-03          0.4181
  63       4.981e-02      -2.792e+00       2.133e-02           0.001          -0.007           1.000       4.119e-03          0.7129
  64       1.165e-02      -2.792e+00       2.138e-02           0.000          -0.007           1.000       1.400e-03          1.7417
Strip 6
  65       1.098e+00      -2.693e+00       1.588e-04           0.040          -0.013           0.999       1.746e-03          0.0364
  66       1.075e+00      -2.693e+00       1.089e-03           0.039          -0.013           0.999       5.135e-03          0.0616
  67       1.020e+00      -2.693e+00       3.138e-03           0.036          -0.012           0.999       8.226e-03          0.0872
  68       9.389e-01      -2.693e+00       6.019e-03           0.033          -0.011           0.999       1.084e-02          0.1101
  69       8.349e-01      -2.693e+00       9.350e-03           0.029          -0.010           1.000       1.282e-02          0.1311
  70       7.144e-01      -2.693e+00       1.273e-02           0.025          -0.009           1.000       1.405e-02          0.1518
  71       5.844e-01      -2.693e+00       1.579e-02           0.020          -0.008           1.000       1.447e-02          0.1754
  72       4.525e-01      -2.693e+00       1.827e-02           0.015          -0.008           1.000       1.405e-02          0.2069
  73       3.263e-01      -2.693e+00       2.007e-02           0.011          -0.007           1.000       1.281e-02          0.2541
  74       2.132e-01      -2.693e+00       2.119e-02           0.007          -0.007           1.000       1.083e-02          0.3313
  75       1.197e-01      -2.693e+00       2.177e-02           0.004          -0.007           1.000       8.220e-03          0.4724
  76       5.136e-02      -2.693e+00       2.199e-02           0.001          -0.007           1.000       5.131e-03          0.7912
  77       1.201e-02      -2.693e+00       2.204e-02           0.000          -0.007           1.000       1.744e-03          1.9166
Strip 7
  78       1.138e+00      -2.575e+00       1.644e-04           0.040          -0.013           0.999       2.107e-03          0.0381
  79       1.113e+00      -2.575e+00       1.128e-03           0.039          -0.013           0.999       6.199e-03          0.0649
  80       1.057e+00      -2.575e+00       3.250e-03           0.036          -0.012           0.999       9.929e-03          0.0926
  81       9.724e-01      -2.575e+00       6.233e-03           0.033          -0.011           0.999       1.308e-02          0.1183
  82       8.647e-01      -2.575e+00       9.684e-03           0.029          -0.010           1.000       1.547e-02          0.1428
  83       7.399e-01      -2.575e+00       1.318e-02           0.025          -0.009           1.000       1.696e-02          0.1674
  84       6.052e-01      -2.575e+00       1.635e-02           0.020          -0.008           1.000       1.747e-02          0.1952
  85       4.686e-01      -2.575e+00       1.892e-02           0.015          -0.008           1.000       1.696e-02          0.2313
  86       3.380e-01      -2.575e+00       2.078e-02           0.011          -0.007           1.000       1.547e-02          0.2835
  87       2.208e-01      -2.575e+00       2.194e-02           0.007          -0.007           1.000       1.307e-02          0.3665
  88       1.240e-01      -2.575e+00       2.254e-02           0.004          -0.007           1.000       9.922e-03          0.5160
  89       5.319e-02      -2.575e+00       2.278e-02           0.001          -0.007           1.000       6.194e-03          0.8552
  90       1.244e-02      -2.575e+00       2.283e-02           0.000          -0.007           1.000       2.105e-03          2.0613
Strip 8
  91       1.183e+00      -2.439e+00       1.709e-04           0.040          -0.013           0.999       2.487e-03          0.0397
  92       1.157e+00      -2.439e+00       1.173e-03           0.039          -0.013           0.999       7.315e-03          0.0679
  93       1.099e+00      -2.439e+00       3.378e-03           0.036          -0.012           0.999       1.172e-02          0.0973
  94       1.011e+00      -2.439e+00       6.480e-03           0.033          -0.011           0.999       1.544e-02          0.1253
  95       8.989e-01      -2.439e+00       1.007e-02           0.029          -0.010           1.000       1.826e-02          0.1526
  96       7.691e-01      -2.439e+00       1.370e-02           0.025          -0.009           1.000       2.002e-02          0.1803
  97       6.292e-01      -2.439e+00       1.700e-02           0.020          -0.008           1.000       2.062e-02          0.2115
  98       4.872e-01      -2.439e+00       1.967e-02           0.015          -0.008           1.000       2.002e-02          0.2511
  99       3.513e-01      -2.439e+00       2.160e-02           0.011          -0.007           1.000       1.825e-02          0.3070
 100       2.296e-01      -2.439e+00       2.281e-02           0.007          -0.007           1.000       1.543e-02          0.3942
 101       1.289e-01      -2.439e+00       2.343e-02           0.004          -0.007           1.000       1.171e-02          0.5506
 102       5.529e-02      -2.439e+00       2.368e-02           0.001          -0.007           1.000       7.309e-03          0.9065
 103       1.293e-02      -2.439e+00       2.373e-02           0.000          -0.007           1.000       2.485e-03          2.1781
Strip 9
 104       1.233e+00      -2.287e+00       1.782e-04           0.040          -0.013           0.999       2.884e-03          0.0410
 105       1.206e+00      -2.287e+00       1.223e-03           0.039          -0.013           0.999       8.484e-03          0.0703
 106       1.146e+00      -2.287e+00       3.523e-03           0.036          -0.012           0.999       1.359e-02          0.1012
 107       1.054e+00      -2.287e+00       6.757e-03           0.033          -0.011           0.999       1.790e-02          0.1309
 108       9.373e-01      -2.287e+00       1.050e-02           0.029          -0.010           1.000       2.118e-02          0.1604
 109       8.020e-01      -2.287e+00       1.429e-02           0.025          -0.009           1.000       2.322e-02          0.1905
 110       6.561e-01      -2.287e+00       1.772e-02           0.020          -0.008           1.000       2.391e-02          0.2243
 111       5.080e-01      -2.287e+00       2.051e-02           0.015          -0.008           1.000       2.321e-02          0.2665
 112       3.663e-01      -2.287e+00       2.253e-02           0.011          -0.007           1.000       2.117e-02          0.3251
 113       2.394e-01      -2.287e+00       2.379e-02           0.007          -0.007           1.000       1.789e-02          0.4156
 114       1.344e-01      -2.287e+00       2.444e-02           0.004          -0.007           1.000       1.358e-02          0.5772
 115       5.765e-02      -2.287e+00       2.469e-02           0.001          -0.007           1.000       8.477e-03          0.9463
 116       1.349e-02      -2.287e+00       2.475e-02           0.000          -0.007           1.000       2.881e-03          2.2693
Strip 10
 117       1.289e+00      -2.120e+00       1.863e-04           0.040          -0.013           0.999       3.298e-03          0.0420
 118       1.261e+00      -2.120e+00       1.278e-03           0.039          -0.013           0.999       9.701e-03          0.0721
 119       1.197e+00      -2.120e+00       3.682e-03           0.036          -0.012           0.999       1.554e-02          0.1041
 120       1.102e+00      -2.120e+00       7.062e-03           0.033          -0.011           0.999       2.047e-02          0.1352
 121       9.796e-01      -2.120e+00       1.097e-02           0.029          -0.010           1.000       2.422e-02          0.1662
 122       8.382e-01      -2.120e+00       1.494e-02           0.025          -0.009           1.000       2.655e-02          0.1982
 123       6.857e-01      -2.120e+00       1.853e-02           0.020          -0.008           1.000       2.734e-02          0.2339
 124       5.309e-01      -2.120e+00       2.144e-02           0.015          -0.008           1.000       2.655e-02          0.2781
 125       3.829e-01      -2.120e+00       2.354e-02           0.011          -0.007           1.000       2.421e-02          0.3385
 126       2.502e-01      -2.120e+00       2.486e-02           0.007          -0.007           1.000       2.046e-02          0.4313
 127       1.405e-01      -2.120e+00       2.554e-02           0.004          -0.007           1.000       1.553e-02          0.5969
 128       6.026e-02      -2.120e+00       2.580e-02           0.001          -0.007           1.000       9.694e-03          0.9759
 129       1.410e-02      -2.120e+00       2.587e-02           0.000          -0.007           1.000       3.295e-03          2.3374
Strip 11
 130       1.349e+00      -1.937e+00       1.951e-04           0.040          -0.013           0.999       3.726e-03          0.0427
 131       1.320e+00      -1.937e+00       1.338e-03           0.039          -0.013           0.999       1.096e-02          0.0734
 132       1.254e+00      -1.937e+00       3.855e-03           0.036          -0.012           0.999       1.756e-02          0.1062
 133       1.153e+00      -1.937e+00       7.394e-03           0.033          -0.011           0.999       2.313e-02          0.1382
 134       1.026e+00      -1.937e+00       1.149e-02           0.029          -0.010           1.000       2.736e-02          0.1704
 135       8.776e-01      -1.937e+00       1.564e-02           0.025          -0.009           1.000       3.000e-02          0.2037
 136       7.179e-01      -1.937e+00       1.940e-02           0.020          -0.008           1.000       3.089e-02          0.2407
 137       5.559e-01      -1.937e+00       2.245e-02           0.015          -0.008           1.000       2.999e-02          0.2862
 138       4.009e-01      -1.937e+00       2.465e-02           0.011          -0.007           1.000       2.735e-02          0.3480
 139       2.619e-01      -1.937e+00       2.603e-02           0.007          -0.007           1.000       2.312e-02          0.4424
 140       1.471e-01      -1.937e+00       2.674e-02           0.004          -0.007           1.000       1.755e-02          0.6107
 141       6.309e-02      -1.937e+00       2.702e-02           0.001          -0.007           1.000       1.095e-02          0.9967
 142       1.476e-02      -1.937e+00       2.708e-02           0.000          -0.007           1.000       3.723e-03          2.3851
Strip 12
 143       1.414e+00      -1.742e+00       2.044e-04           0.040          -0.013           0.999       4.165e-03          0.0431
 144       1.384e+00      -1.742e+00       1.403e-03           0.039          -0.013           0.999       1.225e-02          0.0741
 145       1.314e+00      -1.742e+00       4.040e-03           0.036          -0.012           0.999       1.963e-02          0.1074
 146       1.209e+00      -1.742e+00       7.750e-03           0.033          -0.011           0.999       2.586e-02          0.1401
 147       1.075e+00      -1.742e+00       1.204e-02           0.029          -0.010           1.000       3.059e-02          0.1730
 148       9.198e-01      -1.742e+00       1.639e-02           0.025          -0.009           1.000       3.353e-02          0.2071
 149       7.525e-01      -1.742e+00       2.033e-02           0.020          -0.008           1.000       3.453e-02          0.2451
 150       5.826e-01      -1.742e+00       2.353e-02           0.015          -0.008           1.000       3.353e-02          0.2914
 151       4.202e-01      -1.742e+00       2.584e-02           0.011          -0.007           1.000       3.057e-02          0.3540
 152       2.745e-01      -1.742e+00       2.728e-02           0.007          -0.007           1.000       2.584e-02          0.4494
 153       1.542e-01      -1.742e+00       2.803e-02           0.004          -0.007           1.000       1.961e-02          0.6195
 154       6.613e-02      -1.742e+00       2.832e-02           0.001          -0.007           1.000       1.224e-02          1.0097
 155       1.547e-02      -1.742e+00       2.838e-02           0.000          -0.007           1.000       4.162e-03          2.4148
Strip 13
 156       1.483e+00      -1.534e+00       2.144e-04           0.040          -0.013           0.999       4.611e-03          0.0433
 157       1.451e+00      -1.534e+00       1.471e-03           0.039          -0.013           0.999       1.356e-02          0.0744
 158       1.378e+00      -1.534e+00       4.237e-03           0.036          -0.012           0.999       2.173e-02          0.1078
 159       1.268e+00      -1.534e+00       8.127e-03           0.033          -0.011           0.999       2.862e-02          0.1408
 160       1.127e+00      -1.534e+00       1.263e-02           0.029          -0.010           1.000       3.386e-02          0.1742
 161       9.646e-01      -1.534e+00       1.719e-02           0.025          -0.009           1.000       3.712e-02          0.2088
 162       7.891e-01      -1.534e+00       2.132e-02           0.020          -0.008           1.000       3.823e-02          0.2473
 163       6.110e-01      -1.534e+00       2.467e-02           0.015          -0.008           1.000       3.711e-02          0.2941
 164       4.406e-01      -1.534e+00       2.710e-02           0.011          -0.007           1.000       3.384e-02          0.3571
 165       2.879e-01      -1.534e+00       2.861e-02           0.007          -0.007           1.000       2.861e-02          0.4530
 166       1.617e-01      -1.534e+00       2.939e-02           0.004          -0.007           1.000       2.171e-02          0.6238
 167       6.935e-02      -1.534e+00       2.970e-02           0.001          -0.007           1.000       1.355e-02          1.0159
 168       1.622e-02      -1.534e+00       2.977e-02           0.000          -0.007           1.000       4.607e-03          2.4289
Strip 14
 169       1.556e+00      -1.316e+00       2.249e-04           0.040          -0.013           0.999       5.057e-03          0.0431
 170       1.522e+00      -1.316e+00       1.543e-03           0.039          -0.013           0.999       1.488e-02          0.0741
 171       1.445e+00      -1.316e+00       4.444e-03           0.036          -0.012           0.999       2.383e-02          0.1076
 172       1.330e+00      -1.316e+00       8.524e-03           0.033          -0.011           0.999       3.140e-02          0.1406
 173       1.182e+00      -1.316e+00       1.324e-02           0.029          -0.010           1.000       3.713e-02          0.1741
 174       1.012e+00      -1.316e+00       1.803e-02           0.025          -0.009           1.000       4.071e-02          0.2090
 175       8.276e-01      -1.316e+00       2.236e-02           0.020          -0.008           1.000       4.193e-02          0.2477
 176       6.408e-01      -1.316e+00       2.588e-02           0.015          -0.008           1.000       4.071e-02          0.2947
 177       4.621e-01      -1.316e+00       2.842e-02           0.011          -0.007           1.000       3.712e-02          0.3578
 178       3.020e-01      -1.316e+00       3.001e-02           0.007          -0.007           1.000       3.138e-02          0.4536
 179       1.696e-01      -1.316e+00       3.083e-02           0.004          -0.007           1.000       2.381e-02          0.6243
 180       7.273e-02      -1.316e+00       3.114e-02           0.001          -0.007           1.000       1.486e-02          1.0164
 181       1.701e-02      -1.316e+00       3.122e-02           0.000          -0.007           1.000       5.053e-03          2.4294
Strip 15
 182       1.631e+00      -1.090e+00       2.358e-04           0.040          -0.013           0.999       5.498e-03          0.0427
 183       1.596e+00      -1.090e+00       1.618e-03           0.039          -0.013           0.999       1.617e-02          0.0734
 184       1.515e+00      -1.090e+00       4.659e-03           0.036          -0.012           0.999       2.591e-02          0.1066
 185       1.394e+00      -1.090e+00       8.937e-03           0.033          -0.011           0.999       3.413e-02          0.1395
 186       1.240e+00      -1.090e+00       1.388e-02           0.029          -0.010           1.000       4.037e-02          0.1729
 187       1.061e+00      -1.090e+00       1.890e-02           0.025          -0.009           1.000       4.426e-02          0.2078
 188       8.677e-01      -1.090e+00       2.344e-02           0.020          -0.008           1.000       4.558e-02          0.2465
 189       6.719e-01      -1.090e+00       2.713e-02           0.015          -0.008           1.000       4.425e-02          0.2934
 190       4.845e-01      -1.090e+00       2.979e-02           0.011          -0.007           1.000       4.036e-02          0.3563
 191       3.166e-01      -1.090e+00       3.146e-02           0.007          -0.007           1.000       3.411e-02          0.4517
 192       1.778e-01      -1.090e+00       3.232e-02           0.004          -0.007           1.000       2.589e-02          0.6216
 193       7.625e-02      -1.090e+00       3.265e-02           0.001          -0.007           1.000       1.616e-02          1.0118
 194       1.784e-02      -1.090e+00       3.273e-02           0.000          -0.007           1.000       5.493e-03          2.4182
Strip 16
 195       1.709e+00      -8.553e-01       2.470e-04           0.040          -0.013           0.999       5.926e-03          0.0420
 196       1.672e+00      -8.553e-01       1.695e-03           0.039          -0.013           0.999       1.743e-02          0.0722
 197       1.587e+00      -8.553e-01       4.882e-03           0.036          -0.012           0.999       2.793e-02          0.1048
 198       1.461e+00      -8.553e-01       9.363e-03           0.033          -0.011           0.999       3.679e-02          0.1373
 199       1.299e+00      -8.553e-01       1.455e-02           0.029          -0.010           1.000       4.352e-02          0.1705
 200       1.111e+00      -8.553e-01       1.980e-02           0.025          -0.009           1.000       4.771e-02          0.2052
 201       9.091e-01      -8.553e-01       2.456e-02           0.020          -0.008           1.000       4.913e-02          0.2438
 202       7.039e-01      -8.553e-01       2.843e-02           0.015          -0.008           1.000       4.770e-02          0.2905
 203       5.076e-01      -8.553e-01       3.122e-02           0.011          -0.007           1.000       4.350e-02          0.3530
 204       3.317e-01      -8.553e-01       3.296e-02           0.007          -0.007           1.000       3.677e-02          0.4476
 205       1.863e-01      -8.553e-01       3.386e-02           0.004          -0.007           1.000       2.791e-02          0.6161
 206       7.989e-02      -8.553e-01       3.421e-02           0.001          -0.007           1.000       1.742e-02          1.0028
 207       1.869e-02      -8.553e-01       3.429e-02           0.000          -0.007           1.000       5.921e-03          2.3968
Strip 17
 208       1.788e+00      -6.151e-01       2.585e-04           0.040          -0.013           0.999       6.334e-03          0.0409
 209       1.750e+00      -6.151e-01       1.774e-03           0.039          -0.013           0.999       1.863e-02          0.0703
 210       1.661e+00      -6.151e-01       5.109e-03           0.036          -0.012           0.999       2.985e-02          0.1022
 211       1.529e+00      -6.151e-01       9.800e-03           0.033          -0.011           0.999       3.932e-02          0.1341
 212       1.359e+00      -6.151e-01       1.522e-02           0.029          -0.010           1.000       4.651e-02          0.1669
 213       1.163e+00      -6.151e-01       2.073e-02           0.025          -0.009           1.000       5.100e-02          0.2013
 214       9.516e-01      -6.151e-01       2.571e-02           0.020          -0.008           1.000       5.252e-02          0.2397
 215       7.368e-01      -6.151e-01       2.975e-02           0.015          -0.008           1.000       5.099e-02          0.2860
 216       5.313e-01      -6.151e-01       3.267e-02           0.011          -0.007           1.000       4.649e-02          0.3480
 217       3.472e-01      -6.151e-01       3.450e-02           0.007          -0.007           1.000       3.930e-02          0.4416
 218       1.950e-01      -6.151e-01       3.544e-02           0.004          -0.007           1.000       2.983e-02          0.6080
 219       8.362e-02      -6.151e-01       3.581e-02           0.001          -0.007           1.000       1.862e-02          0.9900
 220       1.956e-02      -6.151e-01       3.589e-02           0.000          -0.007           1.000       6.329e-03          2.3665
Strip 18
 221       1.870e+00      -3.708e-01       2.703e-04           0.040          -0.013           0.999       6.714e-03          0.0392
 222       1.829e+00      -3.708e-01       1.854e-03           0.039          -0.013           0.999       1.975e-02          0.0675
 223       1.737e+00      -3.708e-01       5.341e-03           0.036          -0.012           0.999       3.164e-02          0.0984
 224       1.598e+00      -3.708e-01       1.024e-02           0.033          -0.011           0.999       4.168e-02          0.1296
 225       1.421e+00      -3.708e-01       1.592e-02           0.029          -0.010           1.000       4.930e-02          0.1619
 226       1.216e+00      -3.708e-01       2.167e-02           0.025          -0.009           1.000       5.405e-02          0.1961
 227       9.948e-01      -3.708e-01       2.687e-02           0.020          -0.008           1.000       5.566e-02          0.2342
 228       7.702e-01      -3.708e-01       3.110e-02           0.015          -0.008           1.000       5.404e-02          0.2802
 229       5.554e-01      -3.708e-01       3.416e-02           0.011          -0.007           1.000       4.928e-02          0.3414
 230       3.629e-01      -3.708e-01       3.606e-02           0.007          -0.007           1.000       4.166e-02          0.4337
 231       2.038e-01      -3.708e-01       3.705e-02           0.004          -0.007           1.000       3.161e-02          0.5977
 232       8.742e-02      -3.708e-01       3.743e-02           0.001          -0.007           1.000       1.973e-02          0.9737
 233       2.045e-02      -3.708e-01       3.752e-02           0.000          -0.007           1.000       6.708e-03          2.3282
Strip 19
 234       1.952e+00      -1.239e-01       2.821e-04           0.040          -0.013           0.999       7.056e-03          0.0363
 235       1.909e+00      -1.239e-01       1.936e-03           0.039          -0.013           0.999       2.076e-02          0.0628
 236       1.813e+00      -1.239e-01       5.576e-03           0.036          -0.012           0.999       3.325e-02          0.0924
 237       1.668e+00      -1.239e-01       1.069e-02           0.033          -0.011           0.999       4.381e-02          0.1231
 238       1.483e+00      -1.239e-01       1.661e-02           0.029          -0.010           1.000       5.182e-02          0.1554
 239       1.269e+00      -1.239e-01       2.262e-02           0.025          -0.009           1.000       5.681e-02          0.1896
 240       1.038e+00      -1.239e-01       2.805e-02           0.020          -0.008           1.000       5.850e-02          0.2275
 241       8.040e-01      -1.239e-01       3.247e-02           0.015          -0.008           1.000       5.680e-02          0.2730
 242       5.798e-01      -1.239e-01       3.565e-02           0.011          -0.007           1.000       5.179e-02          0.3333
 243       3.788e-01      -1.239e-01       3.765e-02           0.007          -0.007           1.000       4.378e-02          0.4240
 244       2.128e-01      -1.239e-01       3.868e-02           0.004          -0.007           1.000       3.323e-02          0.5849
 245       9.125e-02      -1.239e-01       3.908e-02           0.001          -0.007           1.000       2.074e-02          0.9538
 246       2.134e-02      -1.239e-01       3.917e-02           0.000          -0.007           1.000       7.050e-03          2.2819
Strip 20
 247       1.952e+00       1.239e-01       2.821e-04           0.040           0.013           0.999       7.056e-03          0.0363
 248       1.909e+00       1.239e-01       1.936e-03           0.039           0.013           0.999       2.076e-02          0.0628
 249       1.813e+00       1.239e-01       5.576e-03           0.036           0.012           0.999       3.325e-02          0.0924
 250       1.668e+00       1.239e-01       1.069e-02           0.033           0.011           0.999       4.381e-02          0.1231
 251       1.483e+00       1.239e-01       1.661e-02           0.029           0.010           1.000       5.182e-02          0.1554
 252       1.269e+00       1.239e-01       2.262e-02           0.025           0.009           1.000       5.681e-02          0.1896
 253       1.038e+00       1.239e-01       2.805e-02           0.020           0.008           1.000       5.850e-02          0.2275
 254       8.040e-01       1.239e-01       3.247e-02           0.015           0.008           1.000       5.680e-02          0.2730
 255       5.798e-01       1.239e-01       3.565e-02           0.011           0.007           1.000       5.179e-02          0.3333
 256       3.788e-01       1.239e-01       3.765e-02           0.007           0.007           1.000       4.378e-02          0.4240
 257       2.128e-01       1.239e-01       3.868e-02           0.004           0.007           1.000       3.323e-02          0.5849
 258       9.125e-02       1.239e-01       3.908e-02           0.001           0.007           1.000       2.074e-02          0.9538
 259       2.134e-02       1.239e-01       3.917e-02           0.000           0.007           1.000       7.050e-03          2.2819
Strip 21
 260       1.870e+00       3.708e-01       2.703e-04           0.040           0.013           0.999       6.714e-03          0.0392
 261       1.829e+00       3.708e-01       1.854e-03           0.039           0.013           0.999       1.975e-02          0.0675
 262       1.737e+00       3.708e-01       5.341e-03           0.036           0.012           0.999       3.164e-02          0.0984
 263       1.598e+00       3.708e-01       1.024e-02           0.033           0.011           0.999       4.168e-02          0.1296
 264       1.421e+00       3.708e-01       1.592e-02           0.029           0.010           1.000       4.930e-02          0.1619
 265       1.216e+00       3.708e-01       2.167e-02           0.025           0.009           1.000       5.405e-02          0.1961
 266       9.948e-01       3.708e-01       2.687e-02           0.020           0.008           1.000       5.566e-02          0.2342
 267       7.702e-01       3.708e-01       3.110e-02           0.015           0.008           1.000       5.404e-02          0.2802
 268       5.554e-01       3.708e-01       3.416e-02           0.011           0.007           1.000       4.928e-02          0.3414
 269       3.629e-01       3.708e-01       3.606e-02           0.007           0.007           1.000       4.166e-02          0.4337
 270       2.038e-01       3.708e-01       3.705e-02           0.004           0.007           1.000       3.161e-02          0.5977
 271       8.742e-02       3.708e-01       3.743e-02           0.001           0.007           1.000       1.973e-02          0.9737
 272       2.045e-02       3.708e-01       3.752e-02           0.000           0.007           1.000       6.708e-03          2.3282
Strip 22
 273       1.788e+00       6.151e-01       2.585e-04           0.040           0.013           0.999       6.334e-03          0.0409
 274       1.750e+00       6.151e-01       1.774e-03           0.039           0.013           0.999       1.863e-02          0.0703
 275       1.661e+00       6.151e-01       5.109e-03           0.036           0.012           0.999       2.985e-02          0.1022
 276       1.529e+00       6.151e-01       9.800e-03           0.033           0.011           0.999       3.932e-02          0.1341
 277       1.359e+00       6.151e-01       1.522e-02           0.029           0.010           1.000       4.651e-02          0.1669
 278       1.163e+00       6.151e-01       2.073e-02           0.025           0.009           1.000       5.100e-02          0.2013
 279       9.516e-01       6.151e-01       2.571e-02           0.020           0.008           1.000       5.252e-02          0.2397
 280       7.368e-01       6.151e-01       2.975e-02           0.015           0.008           1.000       5.099e-02          0.2860
 281       5.313e-01       6.151e-01       3.267e-02           0.011           0.007           1.000       4.649e-02          0.3480
 282       3.472e-01       6.151e-01       3.450e-02           0.007           0.007           1.000       3.930e-02          0.4416
 283       1.950e-01       6.151e-01       3.544e-02           0.004           0.007           1.000       2.983e-02          0.6080
 284       8.362e-02       6.151e-01       3.581e-02           0.001           0.007           1.000       1.862e-02          0.9900
 285       1.956e-02       6.151e-01       3.589e-02           0.000           0.007           1.000       6.329e-03          2.3665
Strip 23
 286       1.709e+00       8.553e-01       2.470e-04           0.040           0.013           0.999       5.926e-03          0.0420
 287       1.672e+00       8.553e-01       1.695e-03           0.039           0.013           0.999       1.743e-02          0.0722
 288       1.587e+00       8.553e-01       4.882e-03           0.036           0.012           0.999       2.793e-02          0.1048
 289       1.461e+00       8.553e-01       9.363e-03           0.033           0.011           0.999       3.679e-02          0.1373
 290       1.299e+00       8.553e-01       1.455e-02           0.029           0.010           1.000       4.352e-02          0.1705
 291       1.111e+00       8.553e-01       1.980e-02           0.025           0.009           1.000       4.771e-02          0.2052
 292       9.091e-01       8.553e-01       2.456e-02           0.020           0.008           1.000       4.913e-02          0.2438
 293       7.039e-01       8.553e-01       2.843e-02           0.015           0.008           1.000       4.770e-02          0.2905
 294       5.076e-01       8.553e-01       3.122e-02           0.011           0.007           1.000       4.350e-02          0.3530
 295       3.317e-01       8.553e-01       3.296e-02           0.007           0.007           1.000       3.677e-02          0.4476
 296       1.863e-01       8.553e-01       3.386e-02           0.004           0.007           1.000       2.791e-02          0.6161
 297       7.989e-02       8.553e-01       3.421e-02           0.001           0.007           1.000       1.742e-02          1.0028
 298       1.869e-02       8.553e-01       3.429e-02           0.000           0.007           1.000       5.921e-03          2.3968
Strip 24
 299       1.631e+00       1.090e+00       2.358e-04           0.040           0.013           0.999       5.498e-03          0.0427
 300       1.596e+00       1.090e+00       1.618e-03           0.039           0.013           0.999       1.617e-02          0.0734
 301       1.515e+00       1.090e+00       4.659e-03           0.036           0.012           0.999       2.591e-02          0.1066
 302       1.394e+00       1.090e+00       8.937e-03           0.033           0.011           0.999       3.413e-02          0.1395
 303       1.240e+00       1.090e+00       1.388e-02           0.029           0.010           1.000       4.037e-02          0.1729
 304       1.061e+00       1.090e+00       1.890e-02           0.025           0.009           1.000       4.426e-02          0.2078
 305       8.677e-01       1.090e+00       2.344e-02           0.020           0.008           1.000       4.558e-02          0.2465
 306       6.719e-01       1.090e+00       2.713e-02           0.015           0.008           1.000       4.425e-02          0.2934
 307       4.845e-01       1.090e+00       2.979e-02           0.011           0.007           1.000       4.036e-02          0.3563
 308       3.166e-01       1.090e+00       3.146e-02           0.007           0.007           1.000       3.411e-02          0.4517
 309       1.778e-01       1.090e+00       3.232e-02           0.004           0.007           1.000       2.589e-02          0.6216
 310       7.625e-02       1.090e+00       3.265e-02           0.001           0.007           1.000       1.616e-02          1.0118
 311       1.784e-02       1.090e+00       3.273e-02           0.000           0.007           1.000       5.493e-03          2.4182
Strip 25
 312       1.556e+00       1.316e+00       2.249e-04           0.040           0.013           0.999       5.057e-03          0.0431
 313       1.522e+00       1.316e+00       1.543e-03           0.039           0.013           0.999       1.488e-02          0.0741
 314       1.445e+00       1.316e+00       4.444e-03           0.036           0.012           0.999       2.383e-02          0.1076
 315       1.330e+00       1.316e+00       8.524e-03           0.033           0.011           0.999       3.140e-02          0.1406
 316       1.182e+00       1.316e+00       1.324e-02           0.029           0.010           1.000       3.713e-02          0.1741
 317       1.012e+00       1.316e+00       1.803e-02           0.025           0.009           1.000       4.071e-02          0.2090
 318       8.276e-01       1.316e+00       2.236e-02           0.020           0.008           1.000       4.193e-02          0.2477
 319       6.408e-01       1.316e+00       2.588e-02           0.015           0.008           1.000       4.071e-02          0.2947
 320       4.621e-01       1.316e+00       2.842e-02           0.011           0.007           1.000       3.712e-02          0.3578
 321       3.020e-01       1.316e+00       3.001e-02           0.007           0.007           1.000       3.138e-02          0.4536
 322       1.696e-01       1.316e+00       3.083e-02           0.004           0.007           1.000       2.381e-02          0.6243
 323       7.273e-02       1.316e+00       3.114e-02           0.001           0.007           1.000       1.486e-02          1.0164
 324       1.701e-02       1.316e+00       3.122e-02           0.000           0.007           1.000       5.053e-03          2.4294
Strip 26
 325       1.483e+00       1.534e+00       2.144e-04           0.040           0.013           0.999       4.611e-03          0.0433
 326       1.451e+00       1.534e+00       1.471e-03           0.039           0.013           0.999       1.356e-02          0.0744
 327       1.378e+00       1.534e+00       4.237e-03           0.036           0.012           0.999       2.173e-02          0.1078
 328       1.268e+00       1.534e+00       8.127e-03           0.033           0.011           0.999       2.862e-02          0.1408
 329       1.127e+00       1.534e+00       1.263e-02           0.029           0.010           1.000       3.386e-02          0.1742
 330       9.646e-01       1.534e+00       1.719e-02           0.025           0.009           1.000       3.712e-02          0.2088
 331       7.891e-01       1.534e+00       2.132e-02           0.020           0.008           1.000       3.823e-02          0.2473
 332       6.110e-01       1.534e+00       2.467e-02           0.015           0.008           1.000       3.711e-02          0.2941
 333       4.406e-01       1.534e+00       2.710e-02           0.011           0.007           1.000       3.384e-02          0.3571
 334       2.879e-01       1.534e+00       2.861e-02           0.007           0.007           1.000       2.861e-02          0.4530
 335       1.617e-01       1.534e+00       2.939e-02           0.004           0.007           1.000       2.171e-02          0.6238
 336       6.935e-02       1.534e+00       2.970e-02           0.001           0.007           1.000       1.355e-02          1.0159
 337       1.622e-02       1.534e+00       2.977e-02           0.000           0.007           1.000       4.607e-03          2.4289
Strip 27
 338       1.414e+00       1.742e+00       2.044e-04           0.040           0.013           0.999       4.165e-03          0.0431
 339       1.384e+00       1.742e+00       1.403e-03           0.039           0.013           0.999       1.225e-02          0.0741
 340       1.314e+00       1.742e+00       4.040e-03           0.036           0.012           0.999       1.963e-02          0.1074
 341       1.209e+00       1.742e+00       7.750e-03           0.033           0.011           0.999       2.586e-02          0.1401
 342       1.075e+00       1.742e+00       1.204e-02           0.029           0.010           1.000       3.059e-02          0.1730
 343       9.198e-01       1.742e+00       1.639e-02           0.025           0.009           1.000       3.353e-02          0.2071
 344       7.525e-01       1.742e+00       2.033e-02           0.020           0.008           1.000       3.453e-02          0.2451
 345       5.826e-01       1.742e+00       2.353e-02           0.015           0.008           1.000       3.353e-02          0.2914
 346       4.202e-01       1.742e+00       2.584e-02           0.011           0.007           1.000       3.057e-02          0.3540
 347       2.745e-01       1.742e+00       2.728e-02           0.007           0.007           1.000       2.584e-02          0.4494
 348       1.542e-01       1.742e+00       2.803e-02           0.004           0.007           1.000       1.961e-02          0.6195
 349       6.613e-02       1.742e+00       2.832e-02           0.001           0.007           1.000       1.224e-02          1.0097
 350       1.547e-02       1.742e+00       2.838e-02           0.000           0.007           1.000       4.162e-03          2.4148
Strip 28
 351       1.349e+00       1.937e+00       1.951e-04           0.040           0.013           0.999       3.726e-03          0.0427
 352       1.320e+00       1.937e+00       1.338e-03           0.039           0.013           0.999       1.096e-02          0.0734
 353       1.254e+00       1.937e+00       3.855e-03           0.036           0.012           0.999       1.756e-02          0.1062
 354       1.153e+00       1.937e+00       7.394e-03           0.033           0.011           0.999       2.313e-02          0.1382
 355       1.026e+00       1.937e+00       1.149e-02           0.029           0.010           1.000       2.736e-02          0.1704
 356       8.776e-01       1.937e+00       1.564e-02           0.025           0.009           1.000       3.000e-02          0.2037
 357       7.179e-01       1.937e+00       1.940e-02           0.020           0.008           1.000       3.089e-02          0.2407
 358       5.559e-01       1.937e+00       2.245e-02           0.015           0.008           1.000       2.999e-02          0.2862
 359       4.009e-01       1.937e+00       2.465e-02           0.011           0.007           1.000       2.735e-02          0.3480
 360       2.619e-01       1.937e+00       2.603e-02           0.007           0.007           1.000       2.312e-02          0.4424
 361       1.471e-01       1.937e+00       2.674e-02           0.004           0.007           1.000       1.755e-02          0.6107
 362       6.309e-02       1.937e+00       2.702e-02           0.001           0.007           1.000       1.095e-02          0.9967
 363       1.476e-02       1.937e+00       2.708e-02           0.000           0.007           1.000       3.723e-03          2.3851
Strip 29
 364       1.289e+00       2.120e+00       1.863e-04           0.040           0.013           0.999       3.298e-03          0.0420
 365       1.261e+00       2.120e+00       1.278e-03           0.039           0.013           0.999       9.701e-03          0.0721
 366       1.197e+00       2.120e+00       3.682e-03           0.036           0.012           0.999       1.554e-02          0.1041
 367       1.102e+00       2.120e+00       7.062e-03           0.033           0.011           0.999       2.047e-02          0.1352
 368       9.796e-01       2.120e+00       1.097e-02           0.029           0.010           1.000       2.422e-02          0.1662
 369       8.382e-01       2.120e+00       1.494e-02           0.025           0.009           1.000       2.655e-02          0.1982
 370       6.857e-01       2.120e+00       1.853e-02           0.020           0.008           1.000       2.734e-02          0.2339
 371       5.309e-01       2.120e+00       2.144e-02           0.015           0.008           1.000       2.655e-02          0.2781
 372       3.829e-01       2.120e+00       2.354e-02           0.011           0.007           1.000       2.421e-02          0.3385
 373       2.502e-01       2.120e+00       2.486e-02           0.007           0.007           1.000       2.046e-02          0.4313
 374       1.405e-01       2.120e+00       2.554e-02           0.004           0.007           1.000       1.553e-02          0.5969
 375       6.026e-02       2.120e+00       2.580e-02           0.001           0.007           1.000       9.694e-03          0.9759
 376       1.410e-02       2.120e+00       2.587e-02           0.000           0.007           1.000       3.295e-03          2.3374
Strip 30
 377       1.233e+00       2.287e+00       1.782e-04           0.040           0.013           0.999       2.884e-03          0.0410
 378       1.206e+00       2.287e+00       1.223e-03           0.039           0.013           0.999       8.484e-03          0.0703
 379       1.146e+00       2.287e+00       3.523e-03           0.036           0.012           0.999       1.359e-02          0.1012
 380       1.054e+00       2.287e+00       6.757e-03           0.033           0.011           0.999       1.790e-02          0.1309
 381       9.373e-01       2.287e+00       1.050e-02           0.029           0.010           1.000       2.118e-02          0.1604
 382       8.020e-01       2.287e+00       1.429e-02           0.025           0.009           1.000       2.322e-02          0.1905
 383       6.561e-01       2.287e+00       1.772e-02           0.020           0.008           1.000       2.391e-02          0.2243
 384       5.080e-01       2.287e+00       2.051e-02           0.015           0.008           1.000       2.321e-02          0.2665
 385       3.663e-01       2.287e+00       2.253e-02           0.011           0.007           1.000       2.117e-02          0.3251
 386       2.394e-01       2.287e+00       2.379e-02           0.007           0.007           1.000       1.789e-02          0.4156
 387       1.344e-01       2.287e+00       2.444e-02           0.004           0.007           1.000       1.358e-02          0.5772
 388       5.765e-02       2.287e+00       2.469e-02           0.001           0.007           1.000       8.477e-03          0.9463
 389       1.349e-02       2.287e+00       2.475e-02           0.000           0.007           1.000       2.881e-03          2.2693
Strip 31
 390       1.183e+00       2.439e+00       1.709e-04           0.040           0.013           0.999       2.487e-03          0.0397
 391       1.157e+00       2.439e+00       1.173e-03           0.039           0.013           0.999       7.315e-03          0.0679
 392       1.099e+00       2.439e+00       3.378e-03           0.036           0.012           0.999       1.172e-02          0.0973
 393       1.011e+00       2.439e+00       6.480e-03           0.033           0.011           0.999       1.544e-02          0.1253
 394       8.989e-01       2.439e+00       1.007e-02           0.029           0.010           1.000       1.826e-02          0.1526
 395       7.691e-01       2.439e+00       1.370e-02           0.025           0.009           1.000       2.002e-02          0.1803
 396       6.292e-01       2.439e+00       1.700e-02           0.020           0.008           1.000       2.062e-02          0.2115
 397       4.872e-01       2.439e+00       1.967e-02           0.015           0.008           1.000       2.002e-02          0.2511
 398       3.513e-01       2.439e+00       2.160e-02           0.011           0.007           1.000       1.825e-02          0.3070
 399       2.296e-01       2.439e+00       2.281e-02           0.007           0.007           1.000       1.543e-02          0.3942
 400       1.289e-01       2.439e+00       2.343e-02           0.004           0.007           1.000       1.171e-02          0.5506
 401       5.529e-02       2.439e+00       2.368e-02           0.001           0.007           1.000       7.309e-03          0.9065
 402       1.293e-02       2.439e+00       2.373e-02           0.000           0.007           1.000       2.485e-03          2.1781
Strip 32
 403       1.138e+00       2.575e+00       1.644e-04           0.040           0.013           0.999       2.107e-03          0.0381
 404       1.113e+00       2.575e+00       1.128e-03           0.039           0.013           0.999       6.199e-03          0.0649
 405       1.057e+00       2.575e+00       3.250e-03           0.036           0.012           0.999       9.929e-03          0.0926
 406       9.724e-01       2.575e+00       6.233e-03           0.033           0.011           0.999       1.308e-02          0.1183
 407       8.647e-01       2.575e+00       9.684e-03           0.029           0.010           1.000       1.547e-02          0.1428
 408       7.399e-01       2.575e+00       1.318e-02           0.025           0.009           1.000       1.696e-02          0.1674
 409       6.052e-01       2.575e+00       1.635e-02           0.020           0.008           1.000       1.747e-02          0.1952
 410       4.686e-01       2.575e+00       1.892e-02           0.015           0.008           1.000       1.696e-02          0.2313
 411       3.380e-01       2.575e+00       2.078e-02           0.011           0.007           1.000       1.547e-02          0.2835
 412       2.208e-01       2.575e+00       2.194e-02           0.007           0.007           1.000       1.307e-02          0.3665
 413       1.240e-01       2.575e+00       2.254e-02           0.004           0.007           1.000       9.922e-03          0.5160
 414       5.319e-02       2.575e+00       2.278e-02           0.001           0.007           1.000       6.194e-03          0.8552
 415       1.244e-02       2.575e+00       2.283e-02           0.000           0.007           1.000       2.105e-03          2.0613
Strip 33
 416       1.098e+00       2.693e+00       1.588e-04           0.040           0.013           0.999       1.746e-03          0.0364
 417       1.075e+00       2.693e+00       1.089e-03           0.039           0.013           0.999       5.135e-03          0.0616
 418       1.020e+00       2.693e+00       3.138e-03           0.036           0.012           0.999       8.226e-03          0.0872
 419       9.389e-01       2.693e+00       6.019e-03           0.033           0.011           0.999       1.084e-02          0.1101
 420       8.349e-01       2.693e+00       9.350e-03           0.029           0.010           1.000       1.282e-02          0.1311
 421       7.144e-01       2.693e+00       1.273e-02           0.025           0.009           1.000       1.405e-02          0.1518
 422       5.844e-01       2.693e+00       1.579e-02           0.020           0.008           1.000       1.447e-02          0.1754
 423       4.525e-01       2.693e+00       1.827e-02           0.015           0.008           1.000       1.405e-02          0.2069
 424       3.263e-01       2.693e+00       2.007e-02           0.011           0.007           1.000       1.281e-02          0.2541
 425       2.132e-01       2.693e+00       2.119e-02           0.007           0.007           1.000       1.083e-02          0.3313
 426       1.197e-01       2.693e+00       2.177e-02           0.004           0.007           1.000       8.220e-03          0.4724
 427       5.136e-02       2.693e+00       2.199e-02           0.001           0.007           1.000       5.131e-03          0.7912
 428       1.201e-02       2.693e+00       2.204e-02           0.000           0.007           1.000       1.744e-03          1.9166
Strip 34
 429       1.065e+00       2.792e+00       1.540e-04           0.040           0.013           0.999       1.401e-03          0.0346
 430       1.042e+00       2.792e+00       1.057e-03           0.039           0.013           0.999       4.123e-03          0.0583
 431       9.897e-01       2.792e+00       3.044e-03           0.036           0.012           0.999       6.604e-03          0.0813
 432       9.106e-01       2.792e+00       5.838e-03           0.033           0.011           0.999       8.700e-03          0.1007
 433       8.098e-01       2.792e+00       9.069e-03           0.029           0.010           1.000       1.029e-02          0.1174
 434       6.929e-01       2.792e+00       1.235e-02           0.025           0.009           1.000       1.128e-02          0.1336
 435       5.668e-01       2.792e+00       1.531e-02           0.020           0.008           1.000       1.162e-02          0.1524
 436       4.389e-01       2.792e+00       1.772e-02           0.015           0.008           1.000       1.128e-02          0.1784
 437       3.165e-01       2.792e+00       1.946e-02           0.011           0.007           1.000       1.029e-02          0.2188
 438       2.068e-01       2.792e+00       2.055e-02           0.007           0.007           1.000       8.695e-03          0.2880
 439       1.161e-01       2.792e+00       2.111e-02           0.004           0.007           1.000       6.599e-03          0.4181
 440       4.981e-02       2.792e+00       2.133e-02           0.001           0.007           1.000       4.119e-03          0.7129
 441       1.165e-02       2.792e+00       2.138e-02           0.000           0.007           1.000       1.400e-03          1.7417
Strip 35
 442       1.039e+00       2.873e+00       1.501e-04           0.040           0.013           0.999       1.072e-03          0.0334
 443       1.016e+00       2.873e+00       1.030e-03           0.039           0.013           0.999       3.155e-03          0.0555
 444       9.648e-01       2.873e+00       2.967e-03           0.036           0.012           0.999       5.053e-03          0.0756
 445       8.878e-01       2.873e+00       5.691e-03           0.033           0.011           0.999       6.658e-03          0.0904
 446       7.895e-01       2.873e+00       8.842e-03           0.029           0.010           1.000       7.875e-03          0.1021
 447       6.755e-01       2.873e+00       1.204e-02           0.025           0.009           1.000       8.634e-03          0.1134
 448       5.526e-01       2.873e+00       1.493e-02           0.020           0.008           1.000       8.891e-03          0.1269
 449       4.279e-01       2.873e+00       1.728e-02           0.015           0.008           1.000       8.632e-03          0.1466
 450       3.086e-01       2.873e+00       1.897e-02           0.011           0.007           1.000       7.872e-03          0.1787
 451       2.016e-01       2.873e+00       2.003e-02           0.007           0.007           1.000       6.654e-03          0.2364
 452       1.132e-01       2.873e+00       2.058e-02           0.004           0.007           1.000       5.050e-03          0.3514
 453       4.856e-02       2.873e+00       2.080e-02           0.001           0.007           1.000       3.152e-03          0.6179
 454       1.136e-02       2.873e+00       2.084e-02           0.000           0.007           1.000       1.072e-03          1.5341
Strip 36
 455       1.018e+00       2.934e+00       1.472e-04           0.040           0.013           0.999       7.563e-04          0.0341
 456       9.963e-01       2.934e+00       1.010e-03           0.039           0.013           0.999       2.225e-03          0.0552
 457       9.461e-01       2.934e+00       2.910e-03           0.036           0.012           0.999       3.564e-03          0.0707
 458       8.705e-01       2.934e+00       5.581e-03           0.033           0.011           0.999       4.695e-03          0.0797
 459       7.741e-01       2.934e+00       8.670e-03           0.029           0.010           1.000       5.554e-03          0.0860
 460       6.624e-01       2.934e+00       1.180e-02           0.025           0.009           1.000       6.089e-03          0.0921
 461       5.419e-01       2.934e+00       1.464e-02           0.020           0.008           1.000       6.270e-03          0.1003
 462       4.196e-01       2.934e+00       1.694e-02           0.015           0.008           1.000       6.088e-03          0.1134
 463       3.026e-01       2.934e+00       1.861e-02           0.011           0.007           1.000       5.551e-03          0.1362
 464       1.977e-01       2.934e+00       1.965e-02           0.007           0.007           1.000       4.693e-03          0.1791
 465       1.110e-01       2.934e+00       2.018e-02           0.004           0.007           1.000       3.561e-03          0.2711
 466       4.762e-02       2.934e+00       2.039e-02           0.001           0.007           1.000       2.223e-03          0.5019
 467       1.114e-02       2.934e+00       2.044e-02           0.000           0.007           1.000       7.557e-04          1.2903
Strip 37
 468       1.005e+00       2.974e+00       1.453e-04           0.040           0.013           0.999       4.498e-04          0.0424
 469       9.831e-01       2.974e+00       9.967e-04           0.039           0.013           0.999       1.323e-03          0.0608
 470       9.335e-01       2.974e+00       2.871e-03           0.036           0.012           0.999       2.119e-03          0.0686
 471       8.590e-01       2.974e+00       5.506e-03           0.033           0.011           0.999       2.792e-03          0.0711
 472       7.638e-01       2.974e+00       8.554e-03           0.029           0.010           1.000       3.303e-03          0.0717
 473       6.536e-01       2.974e+00       1.165e-02           0.025           0.009           1.000       3.621e-03          0.0722
 474       5.347e-01       2.974e+00       1.444e-02           0.020           0.008           1.000       3.729e-03          0.0745
 475       4.140e-01       2.974e+00       1.672e-02           0.015           0.008           1.000       3.621e-03          0.0807
 476       2.985e-01       2.974e+00       1.836e-02           0.011           0.007           1.000       3.302e-03          0.0941
 477       1.951e-01       2.974e+00       1.938e-02           0.007           0.007           1.000       2.791e-03          0.1214
 478       1.096e-01       2.974e+00       1.991e-02           0.004           0.007           1.000       2.118e-03          0.1825
 479       4.698e-02       2.974e+00       2.012e-02           0.001           0.007           1.000       1.322e-03          0.3571
 480       1.099e-02       2.974e+00       2.017e-02           0.000           0.007           1.000       4.494e-04          1.0026
Strip 38
 481       9.981e-01       2.995e+00       1.443e-04           0.040           0.013           0.999       1.493e-04          0.0713
 482       9.764e-01       2.995e+00       9.899e-04           0.039           0.013           0.999       4.391e-04          0.0733
 483       9.272e-01       2.995e+00       2.851e-03           0.036           0.012           0.999       7.033e-04          0.0738
 484       8.532e-01       2.995e+00       5.469e-03           0.033           0.011           0.999       9.266e-04          0.0716
 485       7.586e-01       2.995e+00       8.497e-03           0.029           0.010           1.000       1.096e-03          0.0679
 486       6.492e-01       2.995e+00       1.157e-02           0.025           0.009           1.000       1.202e-03          0.0634
 487       5.310e-01       2.995e+00       1.435e-02           0.020           0.008           1.000       1.237e-03          0.0590
 488       4.112e-01       2.995e+00       1.660e-02           0.015           0.008           1.000       1.201e-03          0.0557
 489       2.965e-01       2.995e+00       1.823e-02           0.011           0.007           1.000       1.096e-03          0.0575
 490       1.937e-01       2.995e+00       1.925e-02           0.007           0.007           1.000       9.261e-04          0.0703
 491       1.088e-01       2.995e+00       1.978e-02           0.004           0.007           1.000       7.028e-04          0.1032
 492       4.667e-02       2.995e+00       1.998e-02           0.001           0.007           1.000       4.387e-04          0.1984
 493       1.092e-02       2.995e+00       2.003e-02           0.000           0.007           1.000       1.491e-04          0.6512










