xflr5 v6.47

Plane Name
T4-3.0°-VLM2-17.3kg-x0.0m
QInf  =   10.000000 m/s
Alpha =    3.000000
Beta  =    0.000°
Phi   =    0.000°
Ctrl  =    0.000
CL    =    0.307514
Cy    =   -0.000000
Cd    =    0.016220     ICd   =    0.007311     PCd   =    0.008909
Cl   = 1.22704e-16
Cm   =  -0.0877234
ICn   =   -0.000000     PCn   =   -0.000000 
XCP   =    0.443036     YCP   =   -0.000000     ZCP   =    0.026819  
XNP   =    0.000000
Bending =   97.552532

Main Wing
  y-span        Chord      Ai         Cl        PCd          ICd        CmGeom    CmAirf@chord/4    XTrtop    XTrBot      XCP       BM
   -2.9949     1.0017    -1.735    0.058298    0.009596    0.001757   -0.015953   -0.001242     0.5249    0.5079    0.2710    0.0000
   -2.9744     1.0085    -1.693    0.100275    0.009591    0.002961   -0.027369   -0.002217     0.5084    0.5252    0.2720    0.0008
   -2.9336     1.0221    -1.624    0.142389    0.009579    0.004036   -0.039069   -0.003366     0.4909    0.5429    0.2735    0.0100
   -2.8728     1.0424    -1.550    0.181106    0.009565    0.004899   -0.050005   -0.004596     0.4750    0.5582    0.2753    0.0514
   -2.7924     1.0692    -1.476    0.215354    0.009533    0.005549   -0.059833   -0.005838     0.4615    0.5704    0.2770    0.1719
   -2.6929     1.1024    -1.408    0.244689    0.009504    0.006013   -0.068368   -0.007018     0.4494    0.5807    0.2786    0.4476
   -2.5750     1.1417    -1.348    0.269062    0.009435    0.006330   -0.075537   -0.008074     0.4388    0.5897    0.2799    0.9865
   -2.4395     1.1868    -1.298    0.288696    0.009372    0.006543   -0.081354   -0.008968     0.4294    0.5959    0.2810    1.9294
   -2.2873     1.2376    -1.261    0.303984    0.009305    0.006692   -0.085904   -0.009685     0.4217    0.5989    0.2818    3.4485
   -2.1195     1.2935    -1.237    0.315395    0.009229    0.006809   -0.089308   -0.010227     0.4156    0.5993    0.2823    5.7433
   -1.9372     1.3543    -1.226    0.323413    0.009153    0.006919   -0.091700   -0.010608     0.4106    0.5975    0.2827    9.0350
   -1.7417     1.4194    -1.227    0.328492    0.009061    0.007036   -0.093208   -0.010842     0.4062    0.5956    0.2829   13.5582
   -1.5343     1.4886    -1.241    0.331029    0.008965    0.007170   -0.093945   -0.010944     0.4021    0.5937    0.2830   19.5523
   -1.3165     1.5612    -1.266    0.331355    0.008886    0.007324   -0.094003   -0.010920     0.3981    0.5902    0.2829   27.2504
   -1.0896     1.6368    -1.303    0.329729    0.008804    0.007502   -0.093446   -0.010770     0.3945    0.5855    0.2826   36.8681
   -0.8553     1.7149    -1.353    0.326339    0.008703    0.007707   -0.092308   -0.010482     0.3938    0.5794    0.2820   48.5909
   -0.6151     1.7950    -1.416    0.321290    0.008594    0.007944   -0.090583   -0.010024     0.3941    0.5725    0.2811   62.5630
   -0.3708     1.8764    -1.499    0.314577    0.008513    0.008234   -0.088205   -0.009329     0.3940    0.5652    0.2795   78.8747
   -0.1239     1.9587    -1.620    0.305951    0.008430    0.008652   -0.084977   -0.008264     0.3943    0.5571    0.2769   97.5525
    0.1239     1.9587    -1.620    0.305951    0.008430    0.008652   -0.084977   -0.008264     0.3943    0.5571    0.2769   97.5525
    0.3708     1.8764    -1.499    0.314577    0.008513    0.008234   -0.088205   -0.009329     0.3940    0.5652    0.2795   78.8747
    0.6151     1.7950    -1.416    0.321290    0.008594    0.007944   -0.090583   -0.010024     0.3941    0.5725    0.2811   62.5630
    0.8553     1.7149    -1.353    0.326339    0.008703    0.007707   -0.092308   -0.010482     0.3938    0.5794    0.2820   48.5909
    1.0896     1.6368    -1.303    0.329729    0.008804    0.007502   -0.093446   -0.010770     0.3945    0.5855    0.2826   36.8681
    1.3165     1.5612    -1.266    0.331355    0.008886    0.007324   -0.094003   -0.010920     0.3981    0.5902    0.2829   27.2505
    1.5343     1.4886    -1.241    0.331029    0.008965    0.007170   -0.093945   -0.010944     0.4021    0.5937    0.2830   19.5523
    1.7417     1.4194    -1.227    0.328492    0.009061    0.007036   -0.093208   -0.010842     0.4062    0.5956    0.2829   13.5582
    1.9372     1.3543    -1.226    0.323413    0.009153    0.006919   -0.091700   -0.010608     0.4106    0.5975    0.2827    9.0350
    2.1195     1.2935    -1.237    0.315395    0.009229    0.006809   -0.089308   -0.010227     0.4156    0.5993    0.2823    5.7433
    2.2873     1.2376    -1.261    0.303984    0.009305    0.006692   -0.085904   -0.009685     0.4217    0.5989    0.2818    3.4485
    2.4395     1.1868    -1.298    0.288696    0.009372    0.006543   -0.081354   -0.008968     0.4294    0.5959    0.2810    1.9294
    2.5750     1.1417    -1.348    0.269062    0.009435    0.006330   -0.075537   -0.008074     0.4388    0.5897    0.2799    0.9865
    2.6929     1.1024    -1.408    0.244689    0.009504    0.006013   -0.068368   -0.007018     0.4494    0.5807    0.2786    0.4476
    2.7924     1.0692    -1.476    0.215354    0.009533    0.005549   -0.059833   -0.005838     0.4615    0.5704    0.2770    0.1719
    2.8728     1.0424    -1.550    0.181106    0.009565    0.004899   -0.050005   -0.004596     0.4750    0.5582    0.2753    0.0514
    2.9336     1.0221    -1.624    0.142389    0.009579    0.004036   -0.039069   -0.003366     0.4909    0.5429    0.2735    0.0100
    2.9744     1.0085    -1.693    0.100275    0.009591    0.002961   -0.027369   -0.002217     0.5084    0.5252    0.2720    0.0008
    2.9949     1.0017    -1.735    0.058298    0.009596    0.001757   -0.015953   -0.001242     0.5249    0.5079    0.2710    0.0000


Main Wing Cp Coefficients
 Panel     CtrlPt.x        CtrlPt.y        CtrlPt.z       Nx      Ny       Nz        Area       Cp
Main WingCp Coefficients
Strip 1
   0       9.981e-01      -2.995e+00       1.443e-04           0.040          -0.013           0.999       1.493e-04          0.0132
   1       9.764e-01      -2.995e+00       9.899e-04           0.039          -0.013           0.999       4.391e-04          0.0183
   2       9.272e-01      -2.995e+00       2.851e-03           0.036          -0.012           0.999       7.033e-04          0.0227
   3       8.532e-01      -2.995e+00       5.469e-03           0.033          -0.011           0.999       9.266e-04          0.0264
   4       7.586e-01      -2.995e+00       8.497e-03           0.029          -0.010           1.000       1.096e-03          0.0300
   5       6.492e-01      -2.995e+00       1.157e-02           0.025          -0.009           1.000       1.202e-03          0.0338
   6       5.310e-01      -2.995e+00       1.435e-02           0.020          -0.008           1.000       1.237e-03          0.0382
   7       4.112e-01      -2.995e+00       1.660e-02           0.015          -0.008           1.000       1.201e-03          0.0441
   8       2.965e-01      -2.995e+00       1.823e-02           0.011          -0.007           1.000       1.096e-03          0.0532
   9       1.937e-01      -2.995e+00       1.925e-02           0.007          -0.007           1.000       9.261e-04          0.0691
  10       1.088e-01      -2.995e+00       1.978e-02           0.004          -0.007           1.000       7.028e-04          0.1027
  11       4.667e-02      -2.995e+00       1.998e-02           0.001          -0.007           1.000       4.387e-04          0.1979
  12       1.092e-02      -2.995e+00       2.003e-02           0.000          -0.007           1.000       1.491e-04          0.6494
Strip 2
  13       1.005e+00      -2.974e+00       1.453e-04           0.040          -0.013           0.999       4.498e-04          0.0204
  14       9.831e-01      -2.974e+00       9.967e-04           0.039          -0.013           0.999       1.323e-03          0.0305
  15       9.335e-01      -2.974e+00       2.871e-03           0.036          -0.012           0.999       2.119e-03          0.0385
  16       8.590e-01      -2.974e+00       5.506e-03           0.033          -0.011           0.999       2.792e-03          0.0451
  17       7.638e-01      -2.974e+00       8.554e-03           0.029          -0.010           1.000       3.303e-03          0.0515
  18       6.536e-01      -2.974e+00       1.165e-02           0.025          -0.009           1.000       3.621e-03          0.0580
  19       5.347e-01      -2.974e+00       1.444e-02           0.020          -0.008           1.000       3.729e-03          0.0657
  20       4.140e-01      -2.974e+00       1.672e-02           0.015          -0.008           1.000       3.621e-03          0.0761
  21       2.985e-01      -2.974e+00       1.836e-02           0.011          -0.007           1.000       3.302e-03          0.0921
  22       1.951e-01      -2.974e+00       1.938e-02           0.007          -0.007           1.000       2.791e-03          0.1205
  23       1.096e-01      -2.974e+00       1.991e-02           0.004          -0.007           1.000       2.118e-03          0.1818
  24       4.698e-02      -2.974e+00       2.012e-02           0.001          -0.007           1.000       1.322e-03          0.3560
  25       1.099e-02      -2.974e+00       2.017e-02           0.000          -0.007           1.000       4.494e-04          0.9999
Strip 3
  26       1.018e+00      -2.934e+00       1.472e-04           0.040          -0.013           0.999       7.563e-04          0.0252
  27       9.963e-01      -2.934e+00       1.010e-03           0.039          -0.013           0.999       2.225e-03          0.0404
  28       9.461e-01      -2.934e+00       2.910e-03           0.036          -0.012           0.999       3.564e-03          0.0534
  29       8.705e-01      -2.934e+00       5.581e-03           0.033          -0.011           0.999       4.695e-03          0.0637
  30       7.741e-01      -2.934e+00       8.670e-03           0.029          -0.010           1.000       5.554e-03          0.0733
  31       6.624e-01      -2.934e+00       1.180e-02           0.025          -0.009           1.000       6.089e-03          0.0831
  32       5.419e-01      -2.934e+00       1.464e-02           0.020          -0.008           1.000       6.270e-03          0.0946
  33       4.196e-01      -2.934e+00       1.694e-02           0.015          -0.008           1.000       6.088e-03          0.1102
  34       3.026e-01      -2.934e+00       1.861e-02           0.011          -0.007           1.000       5.551e-03          0.1345
  35       1.977e-01      -2.934e+00       1.965e-02           0.007          -0.007           1.000       4.693e-03          0.1780
  36       1.110e-01      -2.934e+00       2.018e-02           0.004          -0.007           1.000       3.561e-03          0.2701
  37       4.762e-02      -2.934e+00       2.039e-02           0.001          -0.007           1.000       2.223e-03          0.5004
  38       1.114e-02      -2.934e+00       2.044e-02           0.000          -0.007           1.000       7.557e-04          1.2867
Strip 4
  39       1.039e+00      -2.873e+00       1.501e-04           0.040          -0.013           0.999       1.072e-03          0.0289
  40       1.016e+00      -2.873e+00       1.030e-03           0.039          -0.013           0.999       3.155e-03          0.0479
  41       9.648e-01      -2.873e+00       2.967e-03           0.036          -0.012           0.999       5.053e-03          0.0656
  42       8.878e-01      -2.873e+00       5.691e-03           0.033          -0.011           0.999       6.658e-03          0.0803
  43       7.895e-01      -2.873e+00       8.842e-03           0.029          -0.010           1.000       7.875e-03          0.0936
  44       6.755e-01      -2.873e+00       1.204e-02           0.025          -0.009           1.000       8.634e-03          0.1071
  45       5.526e-01      -2.873e+00       1.493e-02           0.020          -0.008           1.000       8.891e-03          0.1227
  46       4.279e-01      -2.873e+00       1.728e-02           0.015          -0.008           1.000       8.632e-03          0.1440
  47       3.086e-01      -2.873e+00       1.897e-02           0.011          -0.007           1.000       7.872e-03          0.1771
  48       2.016e-01      -2.873e+00       2.003e-02           0.007          -0.007           1.000       6.654e-03          0.2352
  49       1.132e-01      -2.873e+00       2.058e-02           0.004          -0.007           1.000       5.050e-03          0.3501
  50       4.856e-02      -2.873e+00       2.080e-02           0.001          -0.007           1.000       3.152e-03          0.6160
  51       1.136e-02      -2.873e+00       2.084e-02           0.000          -0.007           1.000       1.072e-03          1.5298
Strip 5
  52       1.065e+00      -2.792e+00       1.540e-04           0.040          -0.013           0.999       1.401e-03          0.0321
  53       1.042e+00      -2.792e+00       1.057e-03           0.039          -0.013           0.999       4.123e-03          0.0540
  54       9.897e-01      -2.792e+00       3.044e-03           0.036          -0.012           0.999       6.604e-03          0.0755
  55       9.106e-01      -2.792e+00       5.838e-03           0.033          -0.011           0.999       8.700e-03          0.0943
  56       8.098e-01      -2.792e+00       9.069e-03           0.029          -0.010           1.000       1.029e-02          0.1117
  57       6.929e-01      -2.792e+00       1.235e-02           0.025          -0.009           1.000       1.128e-02          0.1290
  58       5.668e-01      -2.792e+00       1.531e-02           0.020          -0.008           1.000       1.162e-02          0.1491
  59       4.389e-01      -2.792e+00       1.772e-02           0.015          -0.008           1.000       1.128e-02          0.1761
  60       3.165e-01      -2.792e+00       1.946e-02           0.011          -0.007           1.000       1.029e-02          0.2172
  61       2.068e-01      -2.792e+00       2.055e-02           0.007          -0.007           1.000       8.695e-03          0.2866
  62       1.161e-01      -2.792e+00       2.111e-02           0.004          -0.007           1.000       6.599e-03          0.4167
  63       4.981e-02      -2.792e+00       2.133e-02           0.001          -0.007           1.000       4.119e-03          0.7108
  64       1.165e-02      -2.792e+00       2.138e-02           0.000          -0.007           1.000       1.400e-03          1.7368
Strip 6
  65       1.098e+00      -2.693e+00       1.588e-04           0.040          -0.013           0.999       1.746e-03          0.0348
  66       1.075e+00      -2.693e+00       1.089e-03           0.039          -0.013           0.999       5.135e-03          0.0590
  67       1.020e+00      -2.693e+00       3.138e-03           0.036          -0.012           0.999       8.226e-03          0.0836
  68       9.389e-01      -2.693e+00       6.019e-03           0.033          -0.011           0.999       1.084e-02          0.1060
  69       8.349e-01      -2.693e+00       9.350e-03           0.029          -0.010           1.000       1.282e-02          0.1272
  70       7.144e-01      -2.693e+00       1.273e-02           0.025          -0.009           1.000       1.405e-02          0.1485
  71       5.844e-01      -2.693e+00       1.579e-02           0.020          -0.008           1.000       1.447e-02          0.1729
  72       4.525e-01      -2.693e+00       1.827e-02           0.015          -0.008           1.000       1.405e-02          0.2050
  73       3.263e-01      -2.693e+00       2.007e-02           0.011          -0.007           1.000       1.281e-02          0.2525
  74       2.132e-01      -2.693e+00       2.119e-02           0.007          -0.007           1.000       1.083e-02          0.3299
  75       1.197e-01      -2.693e+00       2.177e-02           0.004          -0.007           1.000       8.220e-03          0.4708
  76       5.136e-02      -2.693e+00       2.199e-02           0.001          -0.007           1.000       5.131e-03          0.7890
  77       1.201e-02      -2.693e+00       2.204e-02           0.000          -0.007           1.000       1.744e-03          1.9113
Strip 7
  78       1.138e+00      -2.575e+00       1.644e-04           0.040          -0.013           0.999       2.107e-03          0.0371
  79       1.113e+00      -2.575e+00       1.128e-03           0.039          -0.013           0.999       6.199e-03          0.0632
  80       1.057e+00      -2.575e+00       3.250e-03           0.036          -0.012           0.999       9.929e-03          0.0903
  81       9.724e-01      -2.575e+00       6.233e-03           0.033          -0.011           0.999       1.308e-02          0.1157
  82       8.647e-01      -2.575e+00       9.684e-03           0.029          -0.010           1.000       1.547e-02          0.1401
  83       7.399e-01      -2.575e+00       1.318e-02           0.025          -0.009           1.000       1.696e-02          0.1650
  84       6.052e-01      -2.575e+00       1.635e-02           0.020          -0.008           1.000       1.747e-02          0.1932
  85       4.686e-01      -2.575e+00       1.892e-02           0.015          -0.008           1.000       1.696e-02          0.2297
  86       3.380e-01      -2.575e+00       2.078e-02           0.011          -0.007           1.000       1.547e-02          0.2821
  87       2.208e-01      -2.575e+00       2.194e-02           0.007          -0.007           1.000       1.307e-02          0.3651
  88       1.240e-01      -2.575e+00       2.254e-02           0.004          -0.007           1.000       9.922e-03          0.5145
  89       5.319e-02      -2.575e+00       2.278e-02           0.001          -0.007           1.000       6.194e-03          0.8529
  90       1.244e-02      -2.575e+00       2.283e-02           0.000          -0.007           1.000       2.105e-03          2.0560
Strip 8
  91       1.183e+00      -2.439e+00       1.709e-04           0.040          -0.013           0.999       2.487e-03          0.0390
  92       1.157e+00      -2.439e+00       1.173e-03           0.039          -0.013           0.999       7.315e-03          0.0667
  93       1.099e+00      -2.439e+00       3.378e-03           0.036          -0.012           0.999       1.172e-02          0.0957
  94       1.011e+00      -2.439e+00       6.480e-03           0.033          -0.011           0.999       1.544e-02          0.1235
  95       8.989e-01      -2.439e+00       1.007e-02           0.029          -0.010           1.000       1.826e-02          0.1507
  96       7.691e-01      -2.439e+00       1.370e-02           0.025          -0.009           1.000       2.002e-02          0.1786
  97       6.292e-01      -2.439e+00       1.700e-02           0.020          -0.008           1.000       2.062e-02          0.2100
  98       4.872e-01      -2.439e+00       1.967e-02           0.015          -0.008           1.000       2.002e-02          0.2497
  99       3.513e-01      -2.439e+00       2.160e-02           0.011          -0.007           1.000       1.825e-02          0.3057
 100       2.296e-01      -2.439e+00       2.281e-02           0.007          -0.007           1.000       1.543e-02          0.3930
 101       1.289e-01      -2.439e+00       2.343e-02           0.004          -0.007           1.000       1.171e-02          0.5491
 102       5.529e-02      -2.439e+00       2.368e-02           0.001          -0.007           1.000       7.309e-03          0.9042
 103       1.293e-02      -2.439e+00       2.373e-02           0.000          -0.007           1.000       2.485e-03          2.1728
Strip 9
 104       1.233e+00      -2.287e+00       1.782e-04           0.040          -0.013           0.999       2.884e-03          0.0405
 105       1.206e+00      -2.287e+00       1.223e-03           0.039          -0.013           0.999       8.484e-03          0.0694
 106       1.146e+00      -2.287e+00       3.523e-03           0.036          -0.012           0.999       1.359e-02          0.1000
 107       1.054e+00      -2.287e+00       6.757e-03           0.033          -0.011           0.999       1.790e-02          0.1296
 108       9.373e-01      -2.287e+00       1.050e-02           0.029          -0.010           1.000       2.118e-02          0.1590
 109       8.020e-01      -2.287e+00       1.429e-02           0.025          -0.009           1.000       2.322e-02          0.1892
 110       6.561e-01      -2.287e+00       1.772e-02           0.020          -0.008           1.000       2.391e-02          0.2231
 111       5.080e-01      -2.287e+00       2.051e-02           0.015          -0.008           1.000       2.321e-02          0.2654
 112       3.663e-01      -2.287e+00       2.253e-02           0.011          -0.007           1.000       2.117e-02          0.3240
 113       2.394e-01      -2.287e+00       2.379e-02           0.007          -0.007           1.000       1.789e-02          0.4144
 114       1.344e-01      -2.287e+00       2.444e-02           0.004          -0.007           1.000       1.358e-02          0.5758
 115       5.765e-02      -2.287e+00       2.469e-02           0.001          -0.007           1.000       8.477e-03          0.9441
 116       1.349e-02      -2.287e+00       2.475e-02           0.000          -0.007           1.000       2.881e-03          2.2643
Strip 10
 117       1.289e+00      -2.120e+00       1.863e-04           0.040          -0.013           0.999       3.298e-03          0.0416
 118       1.261e+00      -2.120e+00       1.278e-03           0.039          -0.013           0.999       9.701e-03          0.0714
 119       1.197e+00      -2.120e+00       3.682e-03           0.036          -0.012           0.999       1.554e-02          0.1032
 120       1.102e+00      -2.120e+00       7.062e-03           0.033          -0.011           0.999       2.047e-02          0.1342
 121       9.796e-01      -2.120e+00       1.097e-02           0.029          -0.010           1.000       2.422e-02          0.1652
 122       8.382e-01      -2.120e+00       1.494e-02           0.025          -0.009           1.000       2.655e-02          0.1972
 123       6.857e-01      -2.120e+00       1.853e-02           0.020          -0.008           1.000       2.734e-02          0.2329
 124       5.309e-01      -2.120e+00       2.144e-02           0.015          -0.008           1.000       2.655e-02          0.2771
 125       3.829e-01      -2.120e+00       2.354e-02           0.011          -0.007           1.000       2.421e-02          0.3375
 126       2.502e-01      -2.120e+00       2.486e-02           0.007          -0.007           1.000       2.046e-02          0.4302
 127       1.405e-01      -2.120e+00       2.554e-02           0.004          -0.007           1.000       1.553e-02          0.5956
 128       6.026e-02      -2.120e+00       2.580e-02           0.001          -0.007           1.000       9.694e-03          0.9739
 129       1.410e-02      -2.120e+00       2.587e-02           0.000          -0.007           1.000       3.295e-03          2.3327
Strip 11
 130       1.349e+00      -1.937e+00       1.951e-04           0.040          -0.013           0.999       3.726e-03          0.0424
 131       1.320e+00      -1.937e+00       1.338e-03           0.039          -0.013           0.999       1.096e-02          0.0729
 132       1.254e+00      -1.937e+00       3.855e-03           0.036          -0.012           0.999       1.756e-02          0.1054
 133       1.153e+00      -1.937e+00       7.394e-03           0.033          -0.011           0.999       2.313e-02          0.1374
 134       1.026e+00      -1.937e+00       1.149e-02           0.029          -0.010           1.000       2.736e-02          0.1695
 135       8.776e-01      -1.937e+00       1.564e-02           0.025          -0.009           1.000       3.000e-02          0.2028
 136       7.179e-01      -1.937e+00       1.940e-02           0.020          -0.008           1.000       3.089e-02          0.2399
 137       5.559e-01      -1.937e+00       2.245e-02           0.015          -0.008           1.000       2.999e-02          0.2853
 138       4.009e-01      -1.937e+00       2.465e-02           0.011          -0.007           1.000       2.735e-02          0.3471
 139       2.619e-01      -1.937e+00       2.603e-02           0.007          -0.007           1.000       2.312e-02          0.4414
 140       1.471e-01      -1.937e+00       2.674e-02           0.004          -0.007           1.000       1.755e-02          0.6095
 141       6.309e-02      -1.937e+00       2.702e-02           0.001          -0.007           1.000       1.095e-02          0.9948
 142       1.476e-02      -1.937e+00       2.708e-02           0.000          -0.007           1.000       3.723e-03          2.3807
Strip 12
 143       1.414e+00      -1.742e+00       2.044e-04           0.040          -0.013           0.999       4.165e-03          0.0429
 144       1.384e+00      -1.742e+00       1.403e-03           0.039          -0.013           0.999       1.225e-02          0.0737
 145       1.314e+00      -1.742e+00       4.040e-03           0.036          -0.012           0.999       1.963e-02          0.1068
 146       1.209e+00      -1.742e+00       7.750e-03           0.033          -0.011           0.999       2.586e-02          0.1394
 147       1.075e+00      -1.742e+00       1.204e-02           0.029          -0.010           1.000       3.059e-02          0.1723
 148       9.198e-01      -1.742e+00       1.639e-02           0.025          -0.009           1.000       3.353e-02          0.2064
 149       7.525e-01      -1.742e+00       2.033e-02           0.020          -0.008           1.000       3.453e-02          0.2444
 150       5.826e-01      -1.742e+00       2.353e-02           0.015          -0.008           1.000       3.353e-02          0.2906
 151       4.202e-01      -1.742e+00       2.584e-02           0.011          -0.007           1.000       3.057e-02          0.3532
 152       2.745e-01      -1.742e+00       2.728e-02           0.007          -0.007           1.000       2.584e-02          0.4485
 153       1.542e-01      -1.742e+00       2.803e-02           0.004          -0.007           1.000       1.961e-02          0.6183
 154       6.613e-02      -1.742e+00       2.832e-02           0.001          -0.007           1.000       1.224e-02          1.0079
 155       1.547e-02      -1.742e+00       2.838e-02           0.000          -0.007           1.000       4.162e-03          2.4108
Strip 13
 156       1.483e+00      -1.534e+00       2.144e-04           0.040          -0.013           0.999       4.611e-03          0.0430
 157       1.451e+00      -1.534e+00       1.471e-03           0.039          -0.013           0.999       1.356e-02          0.0740
 158       1.378e+00      -1.534e+00       4.237e-03           0.036          -0.012           0.999       2.173e-02          0.1073
 159       1.268e+00      -1.534e+00       8.127e-03           0.033          -0.011           0.999       2.862e-02          0.1402
 160       1.127e+00      -1.534e+00       1.263e-02           0.029          -0.010           1.000       3.386e-02          0.1735
 161       9.646e-01      -1.534e+00       1.719e-02           0.025          -0.009           1.000       3.712e-02          0.2082
 162       7.891e-01      -1.534e+00       2.132e-02           0.020          -0.008           1.000       3.823e-02          0.2467
 163       6.110e-01      -1.534e+00       2.467e-02           0.015          -0.008           1.000       3.711e-02          0.2934
 164       4.406e-01      -1.534e+00       2.710e-02           0.011          -0.007           1.000       3.384e-02          0.3564
 165       2.879e-01      -1.534e+00       2.861e-02           0.007          -0.007           1.000       2.861e-02          0.4522
 166       1.617e-01      -1.534e+00       2.939e-02           0.004          -0.007           1.000       2.171e-02          0.6227
 167       6.935e-02      -1.534e+00       2.970e-02           0.001          -0.007           1.000       1.355e-02          1.0143
 168       1.622e-02      -1.534e+00       2.977e-02           0.000          -0.007           1.000       4.607e-03          2.4252
Strip 14
 169       1.556e+00      -1.316e+00       2.249e-04           0.040          -0.013           0.999       5.057e-03          0.0429
 170       1.522e+00      -1.316e+00       1.543e-03           0.039          -0.013           0.999       1.488e-02          0.0737
 171       1.445e+00      -1.316e+00       4.444e-03           0.036          -0.012           0.999       2.383e-02          0.1070
 172       1.330e+00      -1.316e+00       8.524e-03           0.033          -0.011           0.999       3.140e-02          0.1400
 173       1.182e+00      -1.316e+00       1.324e-02           0.029          -0.010           1.000       3.713e-02          0.1735
 174       1.012e+00      -1.316e+00       1.803e-02           0.025          -0.009           1.000       4.071e-02          0.2084
 175       8.276e-01      -1.316e+00       2.236e-02           0.020          -0.008           1.000       4.193e-02          0.2471
 176       6.408e-01      -1.316e+00       2.588e-02           0.015          -0.008           1.000       4.071e-02          0.2941
 177       4.621e-01      -1.316e+00       2.842e-02           0.011          -0.007           1.000       3.712e-02          0.3572
 178       3.020e-01      -1.316e+00       3.001e-02           0.007          -0.007           1.000       3.138e-02          0.4529
 179       1.696e-01      -1.316e+00       3.083e-02           0.004          -0.007           1.000       2.381e-02          0.6234
 180       7.273e-02      -1.316e+00       3.114e-02           0.001          -0.007           1.000       1.486e-02          1.0149
 181       1.701e-02      -1.316e+00       3.122e-02           0.000          -0.007           1.000       5.053e-03          2.4259
Strip 15
 182       1.631e+00      -1.090e+00       2.358e-04           0.040          -0.013           0.999       5.498e-03          0.0424
 183       1.596e+00      -1.090e+00       1.618e-03           0.039          -0.013           0.999       1.617e-02          0.0730
 184       1.515e+00      -1.090e+00       4.659e-03           0.036          -0.012           0.999       2.591e-02          0.1061
 185       1.394e+00      -1.090e+00       8.937e-03           0.033          -0.011           0.999       3.413e-02          0.1389
 186       1.240e+00      -1.090e+00       1.388e-02           0.029          -0.010           1.000       4.037e-02          0.1723
 187       1.061e+00      -1.090e+00       1.890e-02           0.025          -0.009           1.000       4.426e-02          0.2072
 188       8.677e-01      -1.090e+00       2.344e-02           0.020          -0.008           1.000       4.558e-02          0.2459
 189       6.719e-01      -1.090e+00       2.713e-02           0.015          -0.008           1.000       4.425e-02          0.2928
 190       4.845e-01      -1.090e+00       2.979e-02           0.011          -0.007           1.000       4.036e-02          0.3557
 191       3.166e-01      -1.090e+00       3.146e-02           0.007          -0.007           1.000       3.411e-02          0.4510
 192       1.778e-01      -1.090e+00       3.232e-02           0.004          -0.007           1.000       2.589e-02          0.6207
 193       7.625e-02      -1.090e+00       3.265e-02           0.001          -0.007           1.000       1.616e-02          1.0104
 194       1.784e-02      -1.090e+00       3.273e-02           0.000          -0.007           1.000       5.493e-03          2.4149
Strip 16
 195       1.709e+00      -8.553e-01       2.470e-04           0.040          -0.013           0.999       5.926e-03          0.0417
 196       1.672e+00      -8.553e-01       1.695e-03           0.039          -0.013           0.999       1.743e-02          0.0718
 197       1.587e+00      -8.553e-01       4.882e-03           0.036          -0.012           0.999       2.793e-02          0.1043
 198       1.461e+00      -8.553e-01       9.363e-03           0.033          -0.011           0.999       3.679e-02          0.1367
 199       1.299e+00      -8.553e-01       1.455e-02           0.029          -0.010           1.000       4.352e-02          0.1699
 200       1.111e+00      -8.553e-01       1.980e-02           0.025          -0.009           1.000       4.771e-02          0.2046
 201       9.091e-01      -8.553e-01       2.456e-02           0.020          -0.008           1.000       4.913e-02          0.2432
 202       7.039e-01      -8.553e-01       2.843e-02           0.015          -0.008           1.000       4.770e-02          0.2899
 203       5.076e-01      -8.553e-01       3.122e-02           0.011          -0.007           1.000       4.350e-02          0.3524
 204       3.317e-01      -8.553e-01       3.296e-02           0.007          -0.007           1.000       3.677e-02          0.4470
 205       1.863e-01      -8.553e-01       3.386e-02           0.004          -0.007           1.000       2.791e-02          0.6152
 206       7.989e-02      -8.553e-01       3.421e-02           0.001          -0.007           1.000       1.742e-02          1.0015
 207       1.869e-02      -8.553e-01       3.429e-02           0.000          -0.007           1.000       5.921e-03          2.3937
Strip 17
 208       1.788e+00      -6.151e-01       2.585e-04           0.040          -0.013           0.999       6.334e-03          0.0406
 209       1.750e+00      -6.151e-01       1.774e-03           0.039          -0.013           0.999       1.863e-02          0.0699
 210       1.661e+00      -6.151e-01       5.109e-03           0.036          -0.012           0.999       2.985e-02          0.1016
 211       1.529e+00      -6.151e-01       9.800e-03           0.033          -0.011           0.999       3.932e-02          0.1335
 212       1.359e+00      -6.151e-01       1.522e-02           0.029          -0.010           1.000       4.651e-02          0.1663
 213       1.163e+00      -6.151e-01       2.073e-02           0.025          -0.009           1.000       5.100e-02          0.2007
 214       9.516e-01      -6.151e-01       2.571e-02           0.020          -0.008           1.000       5.252e-02          0.2391
 215       7.368e-01      -6.151e-01       2.975e-02           0.015          -0.008           1.000       5.099e-02          0.2855
 216       5.313e-01      -6.151e-01       3.267e-02           0.011          -0.007           1.000       4.649e-02          0.3474
 217       3.472e-01      -6.151e-01       3.450e-02           0.007          -0.007           1.000       3.930e-02          0.4409
 218       1.950e-01      -6.151e-01       3.544e-02           0.004          -0.007           1.000       2.983e-02          0.6072
 219       8.362e-02      -6.151e-01       3.581e-02           0.001          -0.007           1.000       1.862e-02          0.9887
 220       1.956e-02      -6.151e-01       3.589e-02           0.000          -0.007           1.000       6.329e-03          2.3634
Strip 18
 221       1.870e+00      -3.708e-01       2.703e-04           0.040          -0.013           0.999       6.714e-03          0.0389
 222       1.829e+00      -3.708e-01       1.854e-03           0.039          -0.013           0.999       1.975e-02          0.0670
 223       1.737e+00      -3.708e-01       5.341e-03           0.036          -0.012           0.999       3.164e-02          0.0977
 224       1.598e+00      -3.708e-01       1.024e-02           0.033          -0.011           0.999       4.168e-02          0.1288
 225       1.421e+00      -3.708e-01       1.592e-02           0.029          -0.010           1.000       4.930e-02          0.1612
 226       1.216e+00      -3.708e-01       2.167e-02           0.025          -0.009           1.000       5.405e-02          0.1955
 227       9.948e-01      -3.708e-01       2.687e-02           0.020          -0.008           1.000       5.566e-02          0.2336
 228       7.702e-01      -3.708e-01       3.110e-02           0.015          -0.008           1.000       5.404e-02          0.2796
 229       5.554e-01      -3.708e-01       3.416e-02           0.011          -0.007           1.000       4.928e-02          0.3408
 230       3.629e-01      -3.708e-01       3.606e-02           0.007          -0.007           1.000       4.166e-02          0.4331
 231       2.038e-01      -3.708e-01       3.705e-02           0.004          -0.007           1.000       3.161e-02          0.5969
 232       8.742e-02      -3.708e-01       3.743e-02           0.001          -0.007           1.000       1.973e-02          0.9725
 233       2.045e-02      -3.708e-01       3.752e-02           0.000          -0.007           1.000       6.708e-03          2.3253
Strip 19
 234       1.952e+00      -1.239e-01       2.821e-04           0.040          -0.013           0.999       7.056e-03          0.0357
 235       1.909e+00      -1.239e-01       1.936e-03           0.039          -0.013           0.999       2.076e-02          0.0619
 236       1.813e+00      -1.239e-01       5.576e-03           0.036          -0.012           0.999       3.325e-02          0.0913
 237       1.668e+00      -1.239e-01       1.069e-02           0.033          -0.011           0.999       4.381e-02          0.1220
 238       1.483e+00      -1.239e-01       1.661e-02           0.029          -0.010           1.000       5.182e-02          0.1544
 239       1.269e+00      -1.239e-01       2.262e-02           0.025          -0.009           1.000       5.681e-02          0.1888
 240       1.038e+00      -1.239e-01       2.805e-02           0.020          -0.008           1.000       5.850e-02          0.2268
 241       8.040e-01      -1.239e-01       3.247e-02           0.015          -0.008           1.000       5.680e-02          0.2724
 242       5.798e-01      -1.239e-01       3.565e-02           0.011          -0.007           1.000       5.179e-02          0.3327
 243       3.788e-01      -1.239e-01       3.765e-02           0.007          -0.007           1.000       4.378e-02          0.4234
 244       2.128e-01      -1.239e-01       3.868e-02           0.004          -0.007           1.000       3.323e-02          0.5841
 245       9.125e-02      -1.239e-01       3.908e-02           0.001          -0.007           1.000       2.074e-02          0.9526
 246       2.134e-02      -1.239e-01       3.917e-02           0.000          -0.007           1.000       7.050e-03          2.2791
Strip 20
 247       1.952e+00       1.239e-01       2.821e-04           0.040           0.013           0.999       7.056e-03          0.0357
 248       1.909e+00       1.239e-01       1.936e-03           0.039           0.013           0.999       2.076e-02          0.0619
 249       1.813e+00       1.239e-01       5.576e-03           0.036           0.012           0.999       3.325e-02          0.0913
 250       1.668e+00       1.239e-01       1.069e-02           0.033           0.011           0.999       4.381e-02          0.1220
 251       1.483e+00       1.239e-01       1.661e-02           0.029           0.010           1.000       5.182e-02          0.1544
 252       1.269e+00       1.239e-01       2.262e-02           0.025           0.009           1.000       5.681e-02          0.1888
 253       1.038e+00       1.239e-01       2.805e-02           0.020           0.008           1.000       5.850e-02          0.2268
 254       8.040e-01       1.239e-01       3.247e-02           0.015           0.008           1.000       5.680e-02          0.2724
 255       5.798e-01       1.239e-01       3.565e-02           0.011           0.007           1.000       5.179e-02          0.3327
 256       3.788e-01       1.239e-01       3.765e-02           0.007           0.007           1.000       4.378e-02          0.4234
 257       2.128e-01       1.239e-01       3.868e-02           0.004           0.007           1.000       3.323e-02          0.5841
 258       9.125e-02       1.239e-01       3.908e-02           0.001           0.007           1.000       2.074e-02          0.9526
 259       2.134e-02       1.239e-01       3.917e-02           0.000           0.007           1.000       7.050e-03          2.2791
Strip 21
 260       1.870e+00       3.708e-01       2.703e-04           0.040           0.013           0.999       6.714e-03          0.0389
 261       1.829e+00       3.708e-01       1.854e-03           0.039           0.013           0.999       1.975e-02          0.0670
 262       1.737e+00       3.708e-01       5.341e-03           0.036           0.012           0.999       3.164e-02          0.0977
 263       1.598e+00       3.708e-01       1.024e-02           0.033           0.011           0.999       4.168e-02          0.1288
 264       1.421e+00       3.708e-01       1.592e-02           0.029           0.010           1.000       4.930e-02          0.1612
 265       1.216e+00       3.708e-01       2.167e-02           0.025           0.009           1.000       5.405e-02          0.1955
 266       9.948e-01       3.708e-01       2.687e-02           0.020           0.008           1.000       5.566e-02          0.2336
 267       7.702e-01       3.708e-01       3.110e-02           0.015           0.008           1.000       5.404e-02          0.2796
 268       5.554e-01       3.708e-01       3.416e-02           0.011           0.007           1.000       4.928e-02          0.3408
 269       3.629e-01       3.708e-01       3.606e-02           0.007           0.007           1.000       4.166e-02          0.4331
 270       2.038e-01       3.708e-01       3.705e-02           0.004           0.007           1.000       3.161e-02          0.5969
 271       8.742e-02       3.708e-01       3.743e-02           0.001           0.007           1.000       1.973e-02          0.9725
 272       2.045e-02       3.708e-01       3.752e-02           0.000           0.007           1.000       6.708e-03          2.3253
Strip 22
 273       1.788e+00       6.151e-01       2.585e-04           0.040           0.013           0.999       6.334e-03          0.0406
 274       1.750e+00       6.151e-01       1.774e-03           0.039           0.013           0.999       1.863e-02          0.0699
 275       1.661e+00       6.151e-01       5.109e-03           0.036           0.012           0.999       2.985e-02          0.1016
 276       1.529e+00       6.151e-01       9.800e-03           0.033           0.011           0.999       3.932e-02          0.1335
 277       1.359e+00       6.151e-01       1.522e-02           0.029           0.010           1.000       4.651e-02          0.1663
 278       1.163e+00       6.151e-01       2.073e-02           0.025           0.009           1.000       5.100e-02          0.2007
 279       9.516e-01       6.151e-01       2.571e-02           0.020           0.008           1.000       5.252e-02          0.2391
 280       7.368e-01       6.151e-01       2.975e-02           0.015           0.008           1.000       5.099e-02          0.2855
 281       5.313e-01       6.151e-01       3.267e-02           0.011           0.007           1.000       4.649e-02          0.3474
 282       3.472e-01       6.151e-01       3.450e-02           0.007           0.007           1.000       3.930e-02          0.4409
 283       1.950e-01       6.151e-01       3.544e-02           0.004           0.007           1.000       2.983e-02          0.6072
 284       8.362e-02       6.151e-01       3.581e-02           0.001           0.007           1.000       1.862e-02          0.9887
 285       1.956e-02       6.151e-01       3.589e-02           0.000           0.007           1.000       6.329e-03          2.3634
Strip 23
 286       1.709e+00       8.553e-01       2.470e-04           0.040           0.013           0.999       5.926e-03          0.0417
 287       1.672e+00       8.553e-01       1.695e-03           0.039           0.013           0.999       1.743e-02          0.0718
 288       1.587e+00       8.553e-01       4.882e-03           0.036           0.012           0.999       2.793e-02          0.1043
 289       1.461e+00       8.553e-01       9.363e-03           0.033           0.011           0.999       3.679e-02          0.1367
 290       1.299e+00       8.553e-01       1.455e-02           0.029           0.010           1.000       4.352e-02          0.1699
 291       1.111e+00       8.553e-01       1.980e-02           0.025           0.009           1.000       4.771e-02          0.2046
 292       9.091e-01       8.553e-01       2.456e-02           0.020           0.008           1.000       4.913e-02          0.2432
 293       7.039e-01       8.553e-01       2.843e-02           0.015           0.008           1.000       4.770e-02          0.2899
 294       5.076e-01       8.553e-01       3.122e-02           0.011           0.007           1.000       4.350e-02          0.3524
 295       3.317e-01       8.553e-01       3.296e-02           0.007           0.007           1.000       3.677e-02          0.4470
 296       1.863e-01       8.553e-01       3.386e-02           0.004           0.007           1.000       2.791e-02          0.6152
 297       7.989e-02       8.553e-01       3.421e-02           0.001           0.007           1.000       1.742e-02          1.0015
 298       1.869e-02       8.553e-01       3.429e-02           0.000           0.007           1.000       5.921e-03          2.3937
Strip 24
 299       1.631e+00       1.090e+00       2.358e-04           0.040           0.013           0.999       5.498e-03          0.0424
 300       1.596e+00       1.090e+00       1.618e-03           0.039           0.013           0.999       1.617e-02          0.0730
 301       1.515e+00       1.090e+00       4.659e-03           0.036           0.012           0.999       2.591e-02          0.1061
 302       1.394e+00       1.090e+00       8.937e-03           0.033           0.011           0.999       3.413e-02          0.1389
 303       1.240e+00       1.090e+00       1.388e-02           0.029           0.010           1.000       4.037e-02          0.1723
 304       1.061e+00       1.090e+00       1.890e-02           0.025           0.009           1.000       4.426e-02          0.2072
 305       8.677e-01       1.090e+00       2.344e-02           0.020           0.008           1.000       4.558e-02          0.2459
 306       6.719e-01       1.090e+00       2.713e-02           0.015           0.008           1.000       4.425e-02          0.2928
 307       4.845e-01       1.090e+00       2.979e-02           0.011           0.007           1.000       4.036e-02          0.3557
 308       3.166e-01       1.090e+00       3.146e-02           0.007           0.007           1.000       3.411e-02          0.4510
 309       1.778e-01       1.090e+00       3.232e-02           0.004           0.007           1.000       2.589e-02          0.6207
 310       7.625e-02       1.090e+00       3.265e-02           0.001           0.007           1.000       1.616e-02          1.0104
 311       1.784e-02       1.090e+00       3.273e-02           0.000           0.007           1.000       5.493e-03          2.4149
Strip 25
 312       1.556e+00       1.316e+00       2.249e-04           0.040           0.013           0.999       5.057e-03          0.0429
 313       1.522e+00       1.316e+00       1.543e-03           0.039           0.013           0.999       1.488e-02          0.0737
 314       1.445e+00       1.316e+00       4.444e-03           0.036           0.012           0.999       2.383e-02          0.1070
 315       1.330e+00       1.316e+00       8.524e-03           0.033           0.011           0.999       3.140e-02          0.1400
 316       1.182e+00       1.316e+00       1.324e-02           0.029           0.010           1.000       3.713e-02          0.1735
 317       1.012e+00       1.316e+00       1.803e-02           0.025           0.009           1.000       4.071e-02          0.2084
 318       8.276e-01       1.316e+00       2.236e-02           0.020           0.008           1.000       4.193e-02          0.2471
 319       6.408e-01       1.316e+00       2.588e-02           0.015           0.008           1.000       4.071e-02          0.2941
 320       4.621e-01       1.316e+00       2.842e-02           0.011           0.007           1.000       3.712e-02          0.3572
 321       3.020e-01       1.316e+00       3.001e-02           0.007           0.007           1.000       3.138e-02          0.4529
 322       1.696e-01       1.316e+00       3.083e-02           0.004           0.007           1.000       2.381e-02          0.6234
 323       7.273e-02       1.316e+00       3.114e-02           0.001           0.007           1.000       1.486e-02          1.0149
 324       1.701e-02       1.316e+00       3.122e-02           0.000           0.007           1.000       5.053e-03          2.4259
Strip 26
 325       1.483e+00       1.534e+00       2.144e-04           0.040           0.013           0.999       4.611e-03          0.0430
 326       1.451e+00       1.534e+00       1.471e-03           0.039           0.013           0.999       1.356e-02          0.0740
 327       1.378e+00       1.534e+00       4.237e-03           0.036           0.012           0.999       2.173e-02          0.1073
 328       1.268e+00       1.534e+00       8.127e-03           0.033           0.011           0.999       2.862e-02          0.1402
 329       1.127e+00       1.534e+00       1.263e-02           0.029           0.010           1.000       3.386e-02          0.1735
 330       9.646e-01       1.534e+00       1.719e-02           0.025           0.009           1.000       3.712e-02          0.2082
 331       7.891e-01       1.534e+00       2.132e-02           0.020           0.008           1.000       3.823e-02          0.2467
 332       6.110e-01       1.534e+00       2.467e-02           0.015           0.008           1.000       3.711e-02          0.2934
 333       4.406e-01       1.534e+00       2.710e-02           0.011           0.007           1.000       3.384e-02          0.3564
 334       2.879e-01       1.534e+00       2.861e-02           0.007           0.007           1.000       2.861e-02          0.4522
 335       1.617e-01       1.534e+00       2.939e-02           0.004           0.007           1.000       2.171e-02          0.6227
 336       6.935e-02       1.534e+00       2.970e-02           0.001           0.007           1.000       1.355e-02          1.0143
 337       1.622e-02       1.534e+00       2.977e-02           0.000           0.007           1.000       4.607e-03          2.4252
Strip 27
 338       1.414e+00       1.742e+00       2.044e-04           0.040           0.013           0.999       4.165e-03          0.0429
 339       1.384e+00       1.742e+00       1.403e-03           0.039           0.013           0.999       1.225e-02          0.0737
 340       1.314e+00       1.742e+00       4.040e-03           0.036           0.012           0.999       1.963e-02          0.1068
 341       1.209e+00       1.742e+00       7.750e-03           0.033           0.011           0.999       2.586e-02          0.1394
 342       1.075e+00       1.742e+00       1.204e-02           0.029           0.010           1.000       3.059e-02          0.1723
 343       9.198e-01       1.742e+00       1.639e-02           0.025           0.009           1.000       3.353e-02          0.2064
 344       7.525e-01       1.742e+00       2.033e-02           0.020           0.008           1.000       3.453e-02          0.2444
 345       5.826e-01       1.742e+00       2.353e-02           0.015           0.008           1.000       3.353e-02          0.2906
 346       4.202e-01       1.742e+00       2.584e-02           0.011           0.007           1.000       3.057e-02          0.3532
 347       2.745e-01       1.742e+00       2.728e-02           0.007           0.007           1.000       2.584e-02          0.4485
 348       1.542e-01       1.742e+00       2.803e-02           0.004           0.007           1.000       1.961e-02          0.6183
 349       6.613e-02       1.742e+00       2.832e-02           0.001           0.007           1.000       1.224e-02          1.0079
 350       1.547e-02       1.742e+00       2.838e-02           0.000           0.007           1.000       4.162e-03          2.4108
Strip 28
 351       1.349e+00       1.937e+00       1.951e-04           0.040           0.013           0.999       3.726e-03          0.0424
 352       1.320e+00       1.937e+00       1.338e-03           0.039           0.013           0.999       1.096e-02          0.0729
 353       1.254e+00       1.937e+00       3.855e-03           0.036           0.012           0.999       1.756e-02          0.1054
 354       1.153e+00       1.937e+00       7.394e-03           0.033           0.011           0.999       2.313e-02          0.1374
 355       1.026e+00       1.937e+00       1.149e-02           0.029           0.010           1.000       2.736e-02          0.1695
 356       8.776e-01       1.937e+00       1.564e-02           0.025           0.009           1.000       3.000e-02          0.2028
 357       7.179e-01       1.937e+00       1.940e-02           0.020           0.008           1.000       3.089e-02          0.2399
 358       5.559e-01       1.937e+00       2.245e-02           0.015           0.008           1.000       2.999e-02          0.2853
 359       4.009e-01       1.937e+00       2.465e-02           0.011           0.007           1.000       2.735e-02          0.3471
 360       2.619e-01       1.937e+00       2.603e-02           0.007           0.007           1.000       2.312e-02          0.4414
 361       1.471e-01       1.937e+00       2.674e-02           0.004           0.007           1.000       1.755e-02          0.6095
 362       6.309e-02       1.937e+00       2.702e-02           0.001           0.007           1.000       1.095e-02          0.9948
 363       1.476e-02       1.937e+00       2.708e-02           0.000           0.007           1.000       3.723e-03          2.3807
Strip 29
 364       1.289e+00       2.120e+00       1.863e-04           0.040           0.013           0.999       3.298e-03          0.0416
 365       1.261e+00       2.120e+00       1.278e-03           0.039           0.013           0.999       9.701e-03          0.0714
 366       1.197e+00       2.120e+00       3.682e-03           0.036           0.012           0.999       1.554e-02          0.1032
 367       1.102e+00       2.120e+00       7.062e-03           0.033           0.011           0.999       2.047e-02          0.1342
 368       9.796e-01       2.120e+00       1.097e-02           0.029           0.010           1.000       2.422e-02          0.1652
 369       8.382e-01       2.120e+00       1.494e-02           0.025           0.009           1.000       2.655e-02          0.1972
 370       6.857e-01       2.120e+00       1.853e-02           0.020           0.008           1.000       2.734e-02          0.2329
 371       5.309e-01       2.120e+00       2.144e-02           0.015           0.008           1.000       2.655e-02          0.2771
 372       3.829e-01       2.120e+00       2.354e-02           0.011           0.007           1.000       2.421e-02          0.3375
 373       2.502e-01       2.120e+00       2.486e-02           0.007           0.007           1.000       2.046e-02          0.4302
 374       1.405e-01       2.120e+00       2.554e-02           0.004           0.007           1.000       1.553e-02          0.5956
 375       6.026e-02       2.120e+00       2.580e-02           0.001           0.007           1.000       9.694e-03          0.9739
 376       1.410e-02       2.120e+00       2.587e-02           0.000           0.007           1.000       3.295e-03          2.3327
Strip 30
 377       1.233e+00       2.287e+00       1.782e-04           0.040           0.013           0.999       2.884e-03          0.0405
 378       1.206e+00       2.287e+00       1.223e-03           0.039           0.013           0.999       8.484e-03          0.0694
 379       1.146e+00       2.287e+00       3.523e-03           0.036           0.012           0.999       1.359e-02          0.1000
 380       1.054e+00       2.287e+00       6.757e-03           0.033           0.011           0.999       1.790e-02          0.1296
 381       9.373e-01       2.287e+00       1.050e-02           0.029           0.010           1.000       2.118e-02          0.1590
 382       8.020e-01       2.287e+00       1.429e-02           0.025           0.009           1.000       2.322e-02          0.1892
 383       6.561e-01       2.287e+00       1.772e-02           0.020           0.008           1.000       2.391e-02          0.2231
 384       5.080e-01       2.287e+00       2.051e-02           0.015           0.008           1.000       2.321e-02          0.2654
 385       3.663e-01       2.287e+00       2.253e-02           0.011           0.007           1.000       2.117e-02          0.3240
 386       2.394e-01       2.287e+00       2.379e-02           0.007           0.007           1.000       1.789e-02          0.4144
 387       1.344e-01       2.287e+00       2.444e-02           0.004           0.007           1.000       1.358e-02          0.5758
 388       5.765e-02       2.287e+00       2.469e-02           0.001           0.007           1.000       8.477e-03          0.9441
 389       1.349e-02       2.287e+00       2.475e-02           0.000           0.007           1.000       2.881e-03          2.2643
Strip 31
 390       1.183e+00       2.439e+00       1.709e-04           0.040           0.013           0.999       2.487e-03          0.0390
 391       1.157e+00       2.439e+00       1.173e-03           0.039           0.013           0.999       7.315e-03          0.0667
 392       1.099e+00       2.439e+00       3.378e-03           0.036           0.012           0.999       1.172e-02          0.0957
 393       1.011e+00       2.439e+00       6.480e-03           0.033           0.011           0.999       1.544e-02          0.1235
 394       8.989e-01       2.439e+00       1.007e-02           0.029           0.010           1.000       1.826e-02          0.1507
 395       7.691e-01       2.439e+00       1.370e-02           0.025           0.009           1.000       2.002e-02          0.1786
 396       6.292e-01       2.439e+00       1.700e-02           0.020           0.008           1.000       2.062e-02          0.2100
 397       4.872e-01       2.439e+00       1.967e-02           0.015           0.008           1.000       2.002e-02          0.2497
 398       3.513e-01       2.439e+00       2.160e-02           0.011           0.007           1.000       1.825e-02          0.3057
 399       2.296e-01       2.439e+00       2.281e-02           0.007           0.007           1.000       1.543e-02          0.3930
 400       1.289e-01       2.439e+00       2.343e-02           0.004           0.007           1.000       1.171e-02          0.5491
 401       5.529e-02       2.439e+00       2.368e-02           0.001           0.007           1.000       7.309e-03          0.9042
 402       1.293e-02       2.439e+00       2.373e-02           0.000           0.007           1.000       2.485e-03          2.1728
Strip 32
 403       1.138e+00       2.575e+00       1.644e-04           0.040           0.013           0.999       2.107e-03          0.0371
 404       1.113e+00       2.575e+00       1.128e-03           0.039           0.013           0.999       6.199e-03          0.0632
 405       1.057e+00       2.575e+00       3.250e-03           0.036           0.012           0.999       9.929e-03          0.0903
 406       9.724e-01       2.575e+00       6.233e-03           0.033           0.011           0.999       1.308e-02          0.1157
 407       8.647e-01       2.575e+00       9.684e-03           0.029           0.010           1.000       1.547e-02          0.1401
 408       7.399e-01       2.575e+00       1.318e-02           0.025           0.009           1.000       1.696e-02          0.1650
 409       6.052e-01       2.575e+00       1.635e-02           0.020           0.008           1.000       1.747e-02          0.1932
 410       4.686e-01       2.575e+00       1.892e-02           0.015           0.008           1.000       1.696e-02          0.2297
 411       3.380e-01       2.575e+00       2.078e-02           0.011           0.007           1.000       1.547e-02          0.2821
 412       2.208e-01       2.575e+00       2.194e-02           0.007           0.007           1.000       1.307e-02          0.3651
 413       1.240e-01       2.575e+00       2.254e-02           0.004           0.007           1.000       9.922e-03          0.5145
 414       5.319e-02       2.575e+00       2.278e-02           0.001           0.007           1.000       6.194e-03          0.8529
 415       1.244e-02       2.575e+00       2.283e-02           0.000           0.007           1.000       2.105e-03          2.0560
Strip 33
 416       1.098e+00       2.693e+00       1.588e-04           0.040           0.013           0.999       1.746e-03          0.0348
 417       1.075e+00       2.693e+00       1.089e-03           0.039           0.013           0.999       5.135e-03          0.0590
 418       1.020e+00       2.693e+00       3.138e-03           0.036           0.012           0.999       8.226e-03          0.0836
 419       9.389e-01       2.693e+00       6.019e-03           0.033           0.011           0.999       1.084e-02          0.1060
 420       8.349e-01       2.693e+00       9.350e-03           0.029           0.010           1.000       1.282e-02          0.1272
 421       7.144e-01       2.693e+00       1.273e-02           0.025           0.009           1.000       1.405e-02          0.1485
 422       5.844e-01       2.693e+00       1.579e-02           0.020           0.008           1.000       1.447e-02          0.1729
 423       4.525e-01       2.693e+00       1.827e-02           0.015           0.008           1.000       1.405e-02          0.2050
 424       3.263e-01       2.693e+00       2.007e-02           0.011           0.007           1.000       1.281e-02          0.2525
 425       2.132e-01       2.693e+00       2.119e-02           0.007           0.007           1.000       1.083e-02          0.3299
 426       1.197e-01       2.693e+00       2.177e-02           0.004           0.007           1.000       8.220e-03          0.4708
 427       5.136e-02       2.693e+00       2.199e-02           0.001           0.007           1.000       5.131e-03          0.7890
 428       1.201e-02       2.693e+00       2.204e-02           0.000           0.007           1.000       1.744e-03          1.9113
Strip 34
 429       1.065e+00       2.792e+00       1.540e-04           0.040           0.013           0.999       1.401e-03          0.0321
 430       1.042e+00       2.792e+00       1.057e-03           0.039           0.013           0.999       4.123e-03          0.0540
 431       9.897e-01       2.792e+00       3.044e-03           0.036           0.012           0.999       6.604e-03          0.0755
 432       9.106e-01       2.792e+00       5.838e-03           0.033           0.011           0.999       8.700e-03          0.0943
 433       8.098e-01       2.792e+00       9.069e-03           0.029           0.010           1.000       1.029e-02          0.1117
 434       6.929e-01       2.792e+00       1.235e-02           0.025           0.009           1.000       1.128e-02          0.1290
 435       5.668e-01       2.792e+00       1.531e-02           0.020           0.008           1.000       1.162e-02          0.1491
 436       4.389e-01       2.792e+00       1.772e-02           0.015           0.008           1.000       1.128e-02          0.1761
 437       3.165e-01       2.792e+00       1.946e-02           0.011           0.007           1.000       1.029e-02          0.2172
 438       2.068e-01       2.792e+00       2.055e-02           0.007           0.007           1.000       8.695e-03          0.2866
 439       1.161e-01       2.792e+00       2.111e-02           0.004           0.007           1.000       6.599e-03          0.4167
 440       4.981e-02       2.792e+00       2.133e-02           0.001           0.007           1.000       4.119e-03          0.7108
 441       1.165e-02       2.792e+00       2.138e-02           0.000           0.007           1.000       1.400e-03          1.7368
Strip 35
 442       1.039e+00       2.873e+00       1.501e-04           0.040           0.013           0.999       1.072e-03          0.0289
 443       1.016e+00       2.873e+00       1.030e-03           0.039           0.013           0.999       3.155e-03          0.0479
 444       9.648e-01       2.873e+00       2.967e-03           0.036           0.012           0.999       5.053e-03          0.0656
 445       8.878e-01       2.873e+00       5.691e-03           0.033           0.011           0.999       6.658e-03          0.0803
 446       7.895e-01       2.873e+00       8.842e-03           0.029           0.010           1.000       7.875e-03          0.0936
 447       6.755e-01       2.873e+00       1.204e-02           0.025           0.009           1.000       8.634e-03          0.1071
 448       5.526e-01       2.873e+00       1.493e-02           0.020           0.008           1.000       8.891e-03          0.1227
 449       4.279e-01       2.873e+00       1.728e-02           0.015           0.008           1.000       8.632e-03          0.1440
 450       3.086e-01       2.873e+00       1.897e-02           0.011           0.007           1.000       7.872e-03          0.1771
 451       2.016e-01       2.873e+00       2.003e-02           0.007           0.007           1.000       6.654e-03          0.2352
 452       1.132e-01       2.873e+00       2.058e-02           0.004           0.007           1.000       5.050e-03          0.3501
 453       4.856e-02       2.873e+00       2.080e-02           0.001           0.007           1.000       3.152e-03          0.6160
 454       1.136e-02       2.873e+00       2.084e-02           0.000           0.007           1.000       1.072e-03          1.5298
Strip 36
 455       1.018e+00       2.934e+00       1.472e-04           0.040           0.013           0.999       7.563e-04          0.0252
 456       9.963e-01       2.934e+00       1.010e-03           0.039           0.013           0.999       2.225e-03          0.0404
 457       9.461e-01       2.934e+00       2.910e-03           0.036           0.012           0.999       3.564e-03          0.0534
 458       8.705e-01       2.934e+00       5.581e-03           0.033           0.011           0.999       4.695e-03          0.0637
 459       7.741e-01       2.934e+00       8.670e-03           0.029           0.010           1.000       5.554e-03          0.0733
 460       6.624e-01       2.934e+00       1.180e-02           0.025           0.009           1.000       6.089e-03          0.0831
 461       5.419e-01       2.934e+00       1.464e-02           0.020           0.008           1.000       6.270e-03          0.0946
 462       4.196e-01       2.934e+00       1.694e-02           0.015           0.008           1.000       6.088e-03          0.1102
 463       3.026e-01       2.934e+00       1.861e-02           0.011           0.007           1.000       5.551e-03          0.1345
 464       1.977e-01       2.934e+00       1.965e-02           0.007           0.007           1.000       4.693e-03          0.1780
 465       1.110e-01       2.934e+00       2.018e-02           0.004           0.007           1.000       3.561e-03          0.2701
 466       4.762e-02       2.934e+00       2.039e-02           0.001           0.007           1.000       2.223e-03          0.5004
 467       1.114e-02       2.934e+00       2.044e-02           0.000           0.007           1.000       7.557e-04          1.2867
Strip 37
 468       1.005e+00       2.974e+00       1.453e-04           0.040           0.013           0.999       4.498e-04          0.0204
 469       9.831e-01       2.974e+00       9.967e-04           0.039           0.013           0.999       1.323e-03          0.0305
 470       9.335e-01       2.974e+00       2.871e-03           0.036           0.012           0.999       2.119e-03          0.0385
 471       8.590e-01       2.974e+00       5.506e-03           0.033           0.011           0.999       2.792e-03          0.0451
 472       7.638e-01       2.974e+00       8.554e-03           0.029           0.010           1.000       3.303e-03          0.0515
 473       6.536e-01       2.974e+00       1.165e-02           0.025           0.009           1.000       3.621e-03          0.0580
 474       5.347e-01       2.974e+00       1.444e-02           0.020           0.008           1.000       3.729e-03          0.0657
 475       4.140e-01       2.974e+00       1.672e-02           0.015           0.008           1.000       3.621e-03          0.0761
 476       2.985e-01       2.974e+00       1.836e-02           0.011           0.007           1.000       3.302e-03          0.0921
 477       1.951e-01       2.974e+00       1.938e-02           0.007           0.007           1.000       2.791e-03          0.1205
 478       1.096e-01       2.974e+00       1.991e-02           0.004           0.007           1.000       2.118e-03          0.1818
 479       4.698e-02       2.974e+00       2.012e-02           0.001           0.007           1.000       1.322e-03          0.3560
 480       1.099e-02       2.974e+00       2.017e-02           0.000           0.007           1.000       4.494e-04          0.9999
Strip 38
 481       9.981e-01       2.995e+00       1.443e-04           0.040           0.013           0.999       1.493e-04          0.0132
 482       9.764e-01       2.995e+00       9.899e-04           0.039           0.013           0.999       4.391e-04          0.0183
 483       9.272e-01       2.995e+00       2.851e-03           0.036           0.012           0.999       7.033e-04          0.0227
 484       8.532e-01       2.995e+00       5.469e-03           0.033           0.011           0.999       9.266e-04          0.0264
 485       7.586e-01       2.995e+00       8.497e-03           0.029           0.010           1.000       1.096e-03          0.0300
 486       6.492e-01       2.995e+00       1.157e-02           0.025           0.009           1.000       1.202e-03          0.0338
 487       5.310e-01       2.995e+00       1.435e-02           0.020           0.008           1.000       1.237e-03          0.0382
 488       4.112e-01       2.995e+00       1.660e-02           0.015           0.008           1.000       1.201e-03          0.0441
 489       2.965e-01       2.995e+00       1.823e-02           0.011           0.007           1.000       1.096e-03          0.0532
 490       1.937e-01       2.995e+00       1.925e-02           0.007           0.007           1.000       9.261e-04          0.0691
 491       1.088e-01       2.995e+00       1.978e-02           0.004           0.007           1.000       7.028e-04          0.1027
 492       4.667e-02       2.995e+00       1.998e-02           0.001           0.007           1.000       4.387e-04          0.1979
 493       1.092e-02       2.995e+00       2.003e-02           0.000           0.007           1.000       1.491e-04          0.6494










