xflr5 v6.47

Plane Name
T4-3.0°-Panel-17.3kg-x0.0m
QInf  =   10.000000 m/s
Alpha =    3.000000
Beta  =    0.000°
Phi   =    0.000°
Ctrl  =    0.000
CL    =    0.319732
Cy    =   -0.000000
Cd    =    0.017339     ICd   =    0.007898     PCd   =    0.009441
Cl   = -3.29373e-16
Cm   =  -0.0862954
ICn   =   -0.000000     PCn   =   -0.000000 
XCP   =    0.402077     YCP   =    0.000000     ZCP   =    0.395991  
XNP   =    0.000000
Bending =  101.609029

Main Wing
  y-span        Chord      Ai         Cl        PCd          ICd        CmGeom    CmAirf@chord/4    XTrtop    XTrBot      XCP       BM
   -2.9949     1.0017    -1.399    0.056644    0.009596    0.001383   -0.053092   -0.019099     0.5255    0.5072    0.3807    0.0000
   -2.9744     1.0085    -1.653    0.097383    0.009591    0.002810   -0.051798   -0.015334     0.5095    0.5240    0.3431    0.0008
   -2.9336     1.0221    -1.638    0.138614    0.009575    0.003964   -0.040085   -0.002552     0.4925    0.5412    0.2529    0.0103
   -2.8728     1.0424    -1.567    0.176543    0.009563    0.004830   -0.043080    0.000196     0.4765    0.5563    0.2349    0.0530
   -2.7924     1.0692    -1.501    0.210236    0.009529    0.005507   -0.050717   -0.000380     0.4632    0.5683    0.2386    0.1776
   -2.6929     1.1024    -1.440    0.239255    0.009498    0.006016   -0.059355   -0.002054     0.4513    0.5780    0.2464    0.4628
   -2.5750     1.1417    -1.389    0.263518    0.009432    0.006390   -0.067435   -0.003917     0.4406    0.5870    0.2534    1.0208
   -2.4395     1.1868    -1.348    0.283190    0.009360    0.006665   -0.074310   -0.005587     0.4313    0.5933    0.2587    1.9985
   -2.2873     1.2376    -1.319    0.298599    0.009294    0.006875   -0.079788   -0.006925     0.4235    0.5965    0.2624    3.5753
   -2.1195     1.2935    -1.302    0.310152    0.009221    0.007048   -0.083895   -0.007913     0.4172    0.5971    0.2649    5.9601
   -1.9372     1.3543    -1.296    0.318283    0.009146    0.007203   -0.086746   -0.008573     0.4120    0.5954    0.2664    9.3840
   -1.7417     1.4194    -1.303    0.323402    0.009057    0.007354   -0.088476   -0.008942     0.4075    0.5934    0.2671   14.0930
   -1.5343     1.4886    -1.319    0.325870    0.008957    0.007505   -0.089210   -0.009045     0.4039    0.5913    0.2673   20.3375
   -1.3165     1.5612    -1.347    0.326002    0.008877    0.007663   -0.089052   -0.008909     0.3999    0.5876    0.2668   28.3609
   -1.0896     1.6368    -1.383    0.324036    0.008790    0.007825   -0.088069   -0.008537     0.3967    0.5829    0.2659   38.3876
   -0.8553     1.7149    -1.429    0.320138    0.008687    0.007985   -0.086289   -0.007915     0.3962    0.5766    0.2642   50.6093
   -0.6151     1.7950    -1.482    0.314393    0.008578    0.008134   -0.083690   -0.007010     0.3966    0.5694    0.2617   65.1726
   -0.3708     1.8764    -1.541    0.306775    0.008495    0.008251   -0.080170   -0.005744     0.3967    0.5618    0.2579   82.1662
   -0.1239     1.9587    -1.583    0.297036    0.008412    0.008209   -0.075570   -0.004022     0.3974    0.5531    0.2523   101.6090
    0.1239     1.9587    -1.583    0.297036    0.008412    0.008209   -0.075570   -0.004022     0.3974    0.5531    0.2523   101.6090
    0.3708     1.8764    -1.541    0.306775    0.008495    0.008251   -0.080170   -0.005744     0.3967    0.5618    0.2579   82.1662
    0.6151     1.7950    -1.482    0.314393    0.008578    0.008134   -0.083690   -0.007010     0.3966    0.5694    0.2617   65.1726
    0.8553     1.7149    -1.429    0.320138    0.008687    0.007985   -0.086289   -0.007915     0.3962    0.5766    0.2642   50.6093
    1.0896     1.6368    -1.383    0.324036    0.008790    0.007825   -0.088069   -0.008537     0.3967    0.5829    0.2659   38.3876
    1.3165     1.5612    -1.347    0.326002    0.008877    0.007663   -0.089052   -0.008909     0.3999    0.5876    0.2668   28.3609
    1.5343     1.4886    -1.319    0.325870    0.008957    0.007505   -0.089210   -0.009045     0.4039    0.5913    0.2673   20.3375
    1.7417     1.4194    -1.303    0.323402    0.009057    0.007354   -0.088476   -0.008942     0.4075    0.5934    0.2671   14.0930
    1.9372     1.3543    -1.296    0.318283    0.009146    0.007203   -0.086746   -0.008573     0.4120    0.5954    0.2664    9.3840
    2.1195     1.2935    -1.302    0.310152    0.009221    0.007048   -0.083895   -0.007913     0.4172    0.5971    0.2649    5.9601
    2.2873     1.2376    -1.319    0.298599    0.009294    0.006875   -0.079788   -0.006925     0.4235    0.5965    0.2624    3.5753
    2.4395     1.1868    -1.348    0.283190    0.009360    0.006665   -0.074310   -0.005587     0.4313    0.5933    0.2587    1.9985
    2.5750     1.1417    -1.389    0.263518    0.009432    0.006390   -0.067435   -0.003917     0.4406    0.5870    0.2534    1.0208
    2.6929     1.1024    -1.440    0.239255    0.009498    0.006016   -0.059355   -0.002054     0.4513    0.5780    0.2464    0.4628
    2.7924     1.0692    -1.501    0.210236    0.009529    0.005507   -0.050717   -0.000380     0.4632    0.5683    0.2386    0.1776
    2.8728     1.0424    -1.567    0.176543    0.009563    0.004830   -0.043080    0.000196     0.4765    0.5563    0.2349    0.0530
    2.9336     1.0221    -1.638    0.138614    0.009575    0.003964   -0.040085   -0.002552     0.4925    0.5412    0.2529    0.0103
    2.9744     1.0085    -1.653    0.097383    0.009591    0.002810   -0.051798   -0.015334     0.5095    0.5240    0.3431    0.0008
    2.9949     1.0017    -1.399    0.056644    0.009596    0.001383   -0.053092   -0.019099     0.5255    0.5072    0.3807    0.0000


Main Wing Cp Coefficients
 Panel     CtrlPt.x        CtrlPt.y        CtrlPt.z       Nx      Ny       Nz        Area       Cp
Main WingCp Coefficients
Strip 1
  13       9.944e-01      -2.995e+00      -2.994e-03           0.377          -0.126          -0.917       1.625e-04         -0.2689
  14       9.657e-01      -2.995e+00      -1.091e-02           0.224          -0.075          -0.972       4.515e-04         -0.2069
  15       9.100e-01      -2.995e+00      -2.322e-02           0.210          -0.071          -0.975       7.207e-04         -0.1430
  16       8.306e-01      -2.995e+00      -3.946e-02           0.192          -0.066          -0.979       9.457e-04         -0.1528
  17       7.319e-01      -2.995e+00      -5.761e-02           0.171          -0.060          -0.983       1.114e-03         -0.1687
  18       6.198e-01      -2.995e+00      -7.541e-02           0.144          -0.054          -0.988       1.216e-03         -0.1911
  19       5.009e-01      -2.995e+00      -9.027e-02           0.105          -0.047          -0.993       1.245e-03         -0.2225
  20       3.819e-01      -2.995e+00      -9.932e-02           0.046          -0.039          -0.998       1.203e-03         -0.2651
  21       2.698e-01      -2.995e+00      -9.974e-02          -0.042          -0.029          -0.999       1.097e-03         -0.3152
  22       1.711e-01      -2.995e+00      -8.957e-02          -0.172          -0.020          -0.985       9.403e-04         -0.3545
  23       9.166e-02      -2.995e+00      -6.852e-02          -0.358          -0.010          -0.934       7.527e-04         -0.3331
  24       3.596e-02      -2.995e+00      -3.791e-02          -0.632          -0.002          -0.775       5.661e-04         -0.1365
  25       7.277e-03      -2.995e+00      -2.062e-04          -0.941           0.002          -0.338       4.408e-04          0.2052
  26       7.277e-03      -2.995e+00       4.027e-02          -0.941          -0.002           0.338       4.407e-04         -0.0531
  27       3.596e-02      -2.995e+00       7.790e-02          -0.631          -0.013           0.776       5.654e-04         -0.5641
  28       9.166e-02      -2.995e+00       1.082e-01          -0.352          -0.023           0.936       7.511e-04         -0.6463
  29       1.711e-01      -2.995e+00       1.284e-01          -0.159          -0.033           0.987       9.385e-04         -0.5582
  30       2.698e-01      -2.995e+00       1.368e-01          -0.021          -0.044           0.999       1.097e-03         -0.4550
  31       3.819e-01      -2.995e+00       1.334e-01           0.076          -0.054           0.996       1.206e-03         -0.3735
  32       5.009e-01      -2.995e+00       1.202e-01           0.143          -0.063           0.988       1.253e-03         -0.3185
  33       6.198e-01      -2.995e+00       9.999e-02           0.191          -0.072           0.979       1.227e-03         -0.2828
  34       7.319e-01      -2.995e+00       7.616e-02           0.225          -0.080           0.971       1.128e-03         -0.2578
  35       8.306e-01      -2.995e+00       5.190e-02           0.253          -0.087           0.964       9.610e-04         -0.2396
  36       9.100e-01      -2.995e+00       3.017e-02           0.275          -0.093           0.957       7.345e-04         -0.2394
  37       9.657e-01      -2.995e+00       1.372e-02           0.292          -0.098           0.951       4.612e-04         -0.3240
  38       9.944e-01      -2.995e+00       3.571e-03           0.436          -0.145           0.888       1.679e-04         -0.5188
Strip 2
  39       1.001e+00      -2.974e+00      -3.014e-03           0.377          -0.126          -0.917       4.898e-04          0.1202
  40       9.723e-01      -2.974e+00      -1.099e-02           0.224          -0.075          -0.972       1.361e-03          0.0107
  41       9.162e-01      -2.974e+00      -2.338e-02           0.210          -0.071          -0.975       2.172e-03         -0.0700
  42       8.362e-01      -2.974e+00      -3.973e-02           0.192          -0.066          -0.979       2.850e-03         -0.1287
  43       7.369e-01      -2.974e+00      -5.800e-02           0.171          -0.060          -0.983       3.357e-03         -0.1646
  44       6.241e-01      -2.974e+00      -7.592e-02           0.144          -0.054          -0.988       3.663e-03         -0.1999
  45       5.043e-01      -2.974e+00      -9.089e-02           0.105          -0.047          -0.993       3.753e-03         -0.2437
  46       3.845e-01      -2.974e+00      -9.999e-02           0.046          -0.039          -0.998       3.627e-03         -0.2983
  47       2.716e-01      -2.974e+00      -1.004e-01          -0.042          -0.029          -0.999       3.306e-03         -0.3565
  48       1.723e-01      -2.974e+00      -9.018e-02          -0.172          -0.020          -0.985       2.834e-03         -0.3900
  49       9.229e-02      -2.974e+00      -6.898e-02          -0.358          -0.010          -0.934       2.268e-03         -0.3331
  50       3.621e-02      -2.974e+00      -3.816e-02          -0.632          -0.002          -0.775       1.706e-03         -0.0134
  51       7.326e-03      -2.974e+00      -2.076e-04          -0.941           0.002          -0.338       1.328e-03          0.5618
  52       7.326e-03      -2.974e+00       4.054e-02          -0.941          -0.002           0.338       1.328e-03          0.2491
  53       3.621e-02      -2.974e+00       7.843e-02          -0.631          -0.013           0.776       1.704e-03         -0.5433
  54       9.229e-02      -2.974e+00       1.089e-01          -0.352          -0.023           0.936       2.263e-03         -0.7292
  55       1.723e-01      -2.974e+00       1.293e-01          -0.159          -0.033           0.987       2.828e-03         -0.6473
  56       2.716e-01      -2.974e+00       1.377e-01          -0.021          -0.044           0.999       3.305e-03         -0.5232
  57       3.845e-01      -2.974e+00       1.343e-01           0.076          -0.054           0.996       3.636e-03         -0.4110
  58       5.043e-01      -2.974e+00       1.210e-01           0.143          -0.063           0.988       3.775e-03         -0.3254
  59       6.241e-01      -2.974e+00       1.007e-01           0.191          -0.072           0.979       3.698e-03         -0.2631
  60       7.369e-01      -2.974e+00       7.668e-02           0.225          -0.080           0.971       3.400e-03         -0.2156
  61       8.362e-01      -2.974e+00       5.225e-02           0.253          -0.087           0.964       2.896e-03         -0.1781
  62       9.162e-01      -2.974e+00       3.038e-02           0.275          -0.093           0.957       2.214e-03         -0.1575
  63       9.723e-01      -2.974e+00       1.381e-02           0.292          -0.098           0.951       1.390e-03         -0.2000
  64       1.001e+00      -2.974e+00       3.595e-03           0.436          -0.145           0.888       5.060e-04         -0.2264
Strip 3
  65       1.015e+00      -2.934e+00      -3.055e-03           0.377          -0.126          -0.917       8.236e-04          0.2542
  66       9.854e-01      -2.934e+00      -1.114e-02           0.224          -0.075          -0.972       2.288e-03          0.1120
  67       9.286e-01      -2.934e+00      -2.369e-02           0.210          -0.071          -0.975       3.652e-03          0.0015
  68       8.475e-01      -2.934e+00      -4.027e-02           0.192          -0.066          -0.979       4.792e-03         -0.0922
  69       7.468e-01      -2.934e+00      -5.878e-02           0.171          -0.060          -0.983       5.644e-03         -0.1550
  70       6.325e-01      -2.934e+00      -7.694e-02           0.144          -0.054          -0.988       6.160e-03         -0.2098
  71       5.111e-01      -2.934e+00      -9.211e-02           0.105          -0.047          -0.993       6.311e-03         -0.2702
  72       3.896e-01      -2.934e+00      -1.013e-01           0.046          -0.039          -0.998       6.098e-03         -0.3394
  73       2.753e-01      -2.934e+00      -1.018e-01          -0.042          -0.029          -0.999       5.558e-03         -0.4051
  74       1.746e-01      -2.934e+00      -9.139e-02          -0.172          -0.020          -0.985       4.764e-03         -0.4267
  75       9.353e-02      -2.934e+00      -6.991e-02          -0.358          -0.010          -0.934       3.814e-03         -0.3175
  76       3.669e-02      -2.934e+00      -3.868e-02          -0.632          -0.002          -0.775       2.869e-03          0.1265
  77       7.425e-03      -2.934e+00      -2.104e-04          -0.941           0.002          -0.338       2.233e-03          0.8463
  78       7.425e-03      -2.934e+00       4.109e-02          -0.941          -0.002           0.338       2.233e-03          0.4783
  79       3.669e-02      -2.934e+00       7.949e-02          -0.631          -0.013           0.776       2.865e-03         -0.5115
  80       9.353e-02      -2.934e+00       1.104e-01          -0.352          -0.023           0.936       3.806e-03         -0.8108
  81       1.746e-01      -2.934e+00       1.310e-01          -0.159          -0.033           0.987       4.756e-03         -0.7540
  82       2.753e-01      -2.934e+00       1.396e-01          -0.021          -0.044           0.999       5.557e-03         -0.6131
  83       3.896e-01      -2.934e+00       1.361e-01           0.076          -0.054           0.996       6.113e-03         -0.4676
  84       5.111e-01      -2.934e+00       1.226e-01           0.143          -0.063           0.988       6.347e-03         -0.3465
  85       6.325e-01      -2.934e+00       1.020e-01           0.191          -0.072           0.979       6.217e-03         -0.2520
  86       7.468e-01      -2.934e+00       7.771e-02           0.225          -0.080           0.971       5.717e-03         -0.1766
  87       8.475e-01      -2.934e+00       5.295e-02           0.253          -0.087           0.964       4.869e-03         -0.1116
  88       9.286e-01      -2.934e+00       3.079e-02           0.275          -0.093           0.957       3.722e-03         -0.0479
  89       9.854e-01      -2.934e+00       1.400e-02           0.292          -0.098           0.951       2.337e-03          0.0104
  90       1.015e+00      -2.934e+00       3.644e-03           0.436          -0.145           0.888       8.508e-04          0.1318
Strip 4
  91       1.035e+00      -2.873e+00      -3.116e-03           0.377          -0.126          -0.917       1.168e-03          0.2968
  92       1.005e+00      -2.873e+00      -1.136e-02           0.224          -0.075          -0.972       3.244e-03          0.1629
  93       9.470e-01      -2.873e+00      -2.416e-02           0.210          -0.071          -0.975       5.178e-03          0.0503
  94       8.643e-01      -2.873e+00      -4.106e-02           0.192          -0.066          -0.979       6.795e-03         -0.0613
  95       7.616e-01      -2.873e+00      -5.995e-02           0.171          -0.060          -0.983       8.004e-03         -0.1442
  96       6.450e-01      -2.873e+00      -7.847e-02           0.144          -0.054          -0.988       8.735e-03         -0.2167
  97       5.212e-01      -2.873e+00      -9.394e-02           0.105          -0.047          -0.993       8.948e-03         -0.2929
  98       3.974e-01      -2.873e+00      -1.034e-01           0.046          -0.039          -0.998       8.647e-03         -0.3756
  99       2.807e-01      -2.873e+00      -1.038e-01          -0.042          -0.029          -0.999       7.882e-03         -0.4493
 100       1.781e-01      -2.873e+00      -9.320e-02          -0.172          -0.020          -0.985       6.756e-03         -0.4657
 101       9.539e-02      -2.873e+00      -7.130e-02          -0.358          -0.010          -0.934       5.409e-03         -0.3281
 102       3.742e-02      -2.873e+00      -3.945e-02          -0.632          -0.002          -0.775       4.068e-03          0.1657
 103       7.572e-03      -2.873e+00      -2.146e-04          -0.941           0.002          -0.338       3.167e-03          0.9120
 104       7.572e-03      -2.873e+00       4.191e-02          -0.941          -0.002           0.338       3.166e-03          0.4987
 105       3.742e-02      -2.873e+00       8.107e-02          -0.631          -0.013           0.776       4.062e-03         -0.5613
 106       9.539e-02      -2.873e+00       1.126e-01          -0.352          -0.023           0.936       5.396e-03         -0.9023
 107       1.781e-01      -2.873e+00       1.336e-01          -0.159          -0.033           0.987       6.743e-03         -0.8556
 108       2.807e-01      -2.873e+00       1.423e-01          -0.021          -0.044           0.999       7.880e-03         -0.7022
 109       3.974e-01      -2.873e+00       1.388e-01           0.076          -0.054           0.996       8.669e-03         -0.5334
 110       5.212e-01      -2.873e+00       1.251e-01           0.143          -0.063           0.988       9.001e-03         -0.3872
 111       6.450e-01      -2.873e+00       1.041e-01           0.191          -0.072           0.979       8.816e-03         -0.2695
 112       7.616e-01      -2.873e+00       7.926e-02           0.225          -0.080           0.971       8.106e-03         -0.1721
 113       8.643e-01      -2.873e+00       5.401e-02           0.253          -0.087           0.964       6.905e-03         -0.0824
 114       9.470e-01      -2.873e+00       3.140e-02           0.275          -0.093           0.957       5.278e-03          0.0147
 115       1.005e+00      -2.873e+00       1.428e-02           0.292          -0.098           0.951       3.314e-03          0.1096
 116       1.035e+00      -2.873e+00       3.716e-03           0.436          -0.145           0.888       1.206e-03          0.2495
Strip 5
 117       1.061e+00      -2.792e+00      -3.196e-03           0.377          -0.126          -0.917       1.526e-03          0.3166
 118       1.031e+00      -2.792e+00      -1.165e-02           0.224          -0.075          -0.972       4.239e-03          0.1894
 119       9.714e-01      -2.792e+00      -2.479e-02           0.210          -0.071          -0.975       6.767e-03          0.0806
 120       8.865e-01      -2.792e+00      -4.212e-02           0.192          -0.066          -0.979       8.880e-03         -0.0371
 121       7.812e-01      -2.792e+00      -6.149e-02           0.171          -0.060          -0.983       1.046e-02         -0.1336
 122       6.616e-01      -2.792e+00      -8.049e-02           0.144          -0.054          -0.988       1.141e-02         -0.2202
 123       5.346e-01      -2.792e+00      -9.636e-02           0.105          -0.047          -0.993       1.169e-02         -0.3092
 124       4.076e-01      -2.792e+00      -1.060e-01           0.046          -0.039          -0.998       1.130e-02         -0.4024
 125       2.880e-01      -2.792e+00      -1.065e-01          -0.042          -0.029          -0.999       1.030e-02         -0.4810
 126       1.827e-01      -2.792e+00      -9.560e-02          -0.172          -0.020          -0.985       8.828e-03         -0.4911
 127       9.784e-02      -2.792e+00      -7.313e-02          -0.358          -0.010          -0.934       7.068e-03         -0.3333
 128       3.839e-02      -2.792e+00      -4.046e-02          -0.632          -0.002          -0.775       5.315e-03          0.1868
 129       7.767e-03      -2.792e+00      -2.201e-04          -0.941           0.002          -0.338       4.139e-03          0.9364
 130       7.767e-03      -2.792e+00       4.298e-02          -0.941          -0.002           0.338       4.138e-03          0.4850
 131       3.839e-02      -2.792e+00       8.315e-02          -0.631          -0.013           0.776       5.308e-03         -0.6166
 132       9.784e-02      -2.792e+00       1.155e-01          -0.352          -0.023           0.936       7.052e-03         -0.9803
 133       1.827e-01      -2.792e+00       1.370e-01          -0.159          -0.033           0.987       8.812e-03         -0.9406
 134       2.880e-01      -2.792e+00       1.460e-01          -0.021          -0.044           0.999       1.030e-02         -0.7801
 135       4.076e-01      -2.792e+00       1.424e-01           0.076          -0.054           0.996       1.133e-02         -0.5953
 136       5.346e-01      -2.792e+00       1.283e-01           0.143          -0.063           0.988       1.176e-02         -0.4300
 137       6.616e-01      -2.792e+00       1.067e-01           0.191          -0.072           0.979       1.152e-02         -0.2931
 138       7.812e-01      -2.792e+00       8.129e-02           0.225          -0.080           0.971       1.059e-02         -0.1769
 139       8.865e-01      -2.792e+00       5.539e-02           0.253          -0.087           0.964       9.023e-03         -0.0678
 140       9.714e-01      -2.792e+00       3.220e-02           0.275          -0.093           0.957       6.897e-03          0.0485
 141       1.031e+00      -2.792e+00       1.464e-02           0.292          -0.098           0.951       4.330e-03          0.1576
 142       1.061e+00      -2.792e+00       3.812e-03           0.436          -0.145           0.888       1.576e-03          0.3051
Strip 6
 143       1.094e+00      -2.693e+00      -3.295e-03           0.377          -0.126          -0.917       1.901e-03          0.3274
 144       1.063e+00      -2.693e+00      -1.201e-02           0.224          -0.075          -0.972       5.280e-03          0.2040
 145       1.001e+00      -2.693e+00      -2.556e-02           0.210          -0.071          -0.975       8.430e-03          0.0986
 146       9.140e-01      -2.693e+00      -4.343e-02           0.192          -0.066          -0.979       1.106e-02         -0.0199
 147       8.055e-01      -2.693e+00      -6.340e-02           0.171          -0.060          -0.983       1.303e-02         -0.1237
 148       6.821e-01      -2.693e+00      -8.299e-02           0.144          -0.054          -0.988       1.422e-02         -0.2204
 149       5.512e-01      -2.693e+00      -9.935e-02           0.105          -0.047          -0.993       1.457e-02         -0.3190
 150       4.202e-01      -2.693e+00      -1.093e-01           0.046          -0.039          -0.998       1.408e-02         -0.4192
 151       2.969e-01      -2.693e+00      -1.098e-01          -0.042          -0.029          -0.999       1.283e-02         -0.4998
 152       1.883e-01      -2.693e+00      -9.857e-02          -0.172          -0.020          -0.985       1.100e-02         -0.5038
 153       1.009e-01      -2.693e+00      -7.540e-02          -0.358          -0.010          -0.934       8.804e-03         -0.3321
 154       3.958e-02      -2.693e+00      -4.172e-02          -0.632          -0.002          -0.775       6.621e-03          0.2027
 155       8.008e-03      -2.693e+00      -2.269e-04          -0.941           0.002          -0.338       5.155e-03          0.9485
 156       8.008e-03      -2.693e+00       4.432e-02          -0.941          -0.002           0.338       5.154e-03          0.4651
 157       3.958e-02      -2.693e+00       8.573e-02          -0.631          -0.013           0.776       6.613e-03         -0.6655
 158       1.009e-01      -2.693e+00       1.191e-01          -0.352          -0.023           0.936       8.784e-03         -1.0423
 159       1.883e-01      -2.693e+00       1.413e-01          -0.159          -0.033           0.987       1.098e-02         -1.0073
 160       2.969e-01      -2.693e+00       1.505e-01          -0.021          -0.044           0.999       1.283e-02         -0.8430
 161       4.202e-01      -2.693e+00       1.468e-01           0.076          -0.054           0.996       1.411e-02         -0.6473
 162       5.512e-01      -2.693e+00       1.323e-01           0.143          -0.063           0.988       1.465e-02         -0.4678
 163       6.821e-01      -2.693e+00       1.100e-01           0.191          -0.072           0.979       1.435e-02         -0.3157
 164       8.055e-01      -2.693e+00       8.382e-02           0.225          -0.080           0.971       1.320e-02         -0.1845
 165       9.140e-01      -2.693e+00       5.711e-02           0.253          -0.087           0.964       1.124e-02         -0.0613
 166       1.001e+00      -2.693e+00       3.320e-02           0.275          -0.093           0.957       8.591e-03          0.0666
 167       1.063e+00      -2.693e+00       1.510e-02           0.292          -0.098           0.951       5.394e-03          0.1835
 168       1.094e+00      -2.693e+00       3.930e-03           0.436          -0.145           0.888       1.964e-03          0.3360
Strip 7
 169       1.133e+00      -2.575e+00      -3.412e-03           0.377          -0.126          -0.917       2.295e-03          0.3337
 170       1.101e+00      -2.575e+00      -1.244e-02           0.224          -0.075          -0.972       6.374e-03          0.2124
 171       1.037e+00      -2.575e+00      -2.647e-02           0.210          -0.071          -0.975       1.017e-02          0.1093
 172       9.466e-01      -2.575e+00      -4.498e-02           0.192          -0.066          -0.979       1.335e-02         -0.0085
 173       8.342e-01      -2.575e+00      -6.566e-02           0.171          -0.060          -0.983       1.573e-02         -0.1155
 174       7.065e-01      -2.575e+00      -8.594e-02           0.144          -0.054          -0.988       1.716e-02         -0.2182
 175       5.708e-01      -2.575e+00      -1.029e-01           0.105          -0.047          -0.993       1.758e-02         -0.3232
 176       4.352e-01      -2.575e+00      -1.132e-01           0.046          -0.039          -0.998       1.699e-02         -0.4278
 177       3.075e-01      -2.575e+00      -1.137e-01          -0.042          -0.029          -0.999       1.549e-02         -0.5088
 178       1.951e-01      -2.575e+00      -1.021e-01          -0.172          -0.020          -0.985       1.327e-02         -0.5081
 179       1.045e-01      -2.575e+00      -7.809e-02          -0.358          -0.010          -0.934       1.063e-02         -0.3274
 180       4.099e-02      -2.575e+00      -4.320e-02          -0.632          -0.002          -0.775       7.992e-03          0.2160
 181       8.294e-03      -2.575e+00      -2.350e-04          -0.941           0.002          -0.338       6.223e-03          0.9559
 182       8.294e-03      -2.575e+00       4.590e-02          -0.941          -0.002           0.338       6.222e-03          0.4456
 183       4.099e-02      -2.575e+00       8.879e-02          -0.631          -0.013           0.776       7.982e-03         -0.7063
 184       1.045e-01      -2.575e+00       1.233e-01          -0.352          -0.023           0.936       1.060e-02         -1.0904
 185       1.951e-01      -2.575e+00       1.463e-01          -0.159          -0.033           0.987       1.325e-02         -1.0577
 186       3.075e-01      -2.575e+00       1.559e-01          -0.021          -0.044           0.999       1.548e-02         -0.8911
 187       4.352e-01      -2.575e+00       1.521e-01           0.076          -0.054           0.996       1.703e-02         -0.6881
 188       5.708e-01      -2.575e+00       1.370e-01           0.143          -0.063           0.988       1.768e-02         -0.4982
 189       7.065e-01      -2.575e+00       1.140e-01           0.191          -0.072           0.979       1.732e-02         -0.3347
 190       8.342e-01      -2.575e+00       8.680e-02           0.225          -0.080           0.971       1.593e-02         -0.1922
 191       9.466e-01      -2.575e+00       5.915e-02           0.253          -0.087           0.964       1.357e-02         -0.0591
 192       1.037e+00      -2.575e+00       3.439e-02           0.275          -0.093           0.957       1.037e-02          0.0764
 193       1.101e+00      -2.575e+00       1.564e-02           0.292          -0.098           0.951       6.511e-03          0.1985
 194       1.133e+00      -2.575e+00       4.070e-03           0.436          -0.145           0.888       2.370e-03          0.3544
Strip 8
 195       1.178e+00      -2.439e+00      -3.547e-03           0.377          -0.126          -0.917       2.708e-03          0.3376
 196       1.144e+00      -2.439e+00      -1.293e-02           0.224          -0.075          -0.972       7.521e-03          0.2176
 197       1.078e+00      -2.439e+00      -2.751e-02           0.210          -0.071          -0.975       1.201e-02          0.1158
 198       9.841e-01      -2.439e+00      -4.676e-02           0.192          -0.066          -0.979       1.576e-02         -0.0009
 199       8.672e-01      -2.439e+00      -6.825e-02           0.171          -0.060          -0.983       1.856e-02         -0.1089
 200       7.344e-01      -2.439e+00      -8.934e-02           0.144          -0.054          -0.988       2.025e-02         -0.2147
 201       5.934e-01      -2.439e+00      -1.070e-01           0.105          -0.047          -0.993       2.075e-02         -0.3234
 202       4.524e-01      -2.439e+00      -1.177e-01           0.046          -0.039          -0.998       2.005e-02         -0.4306
 203       3.197e-01      -2.439e+00      -1.182e-01          -0.042          -0.029          -0.999       1.827e-02         -0.5114
 204       2.028e-01      -2.439e+00      -1.061e-01          -0.172          -0.020          -0.985       1.566e-02         -0.5074
 205       1.086e-01      -2.439e+00      -8.118e-02          -0.358          -0.010          -0.934       1.254e-02         -0.3211
 206       4.261e-02      -2.439e+00      -4.491e-02          -0.632          -0.002          -0.775       9.432e-03          0.2273
 207       8.622e-03      -2.439e+00      -2.443e-04          -0.941           0.002          -0.338       7.343e-03          0.9609
 208       8.622e-03      -2.439e+00       4.771e-02          -0.941          -0.002           0.338       7.342e-03          0.4287
 209       4.261e-02      -2.439e+00       9.230e-02          -0.631          -0.013           0.776       9.419e-03         -0.7389
 210       1.086e-01      -2.439e+00       1.282e-01          -0.352          -0.023           0.936       1.251e-02         -1.1271
 211       2.028e-01      -2.439e+00       1.521e-01          -0.159          -0.033           0.987       1.564e-02         -1.0949
 212       3.197e-01      -2.439e+00       1.621e-01          -0.021          -0.044           0.999       1.827e-02         -0.9264
 213       4.524e-01      -2.439e+00       1.581e-01           0.076          -0.054           0.996       2.010e-02         -0.7184
 214       5.934e-01      -2.439e+00       1.424e-01           0.143          -0.063           0.988       2.087e-02         -0.5212
 215       7.344e-01      -2.439e+00       1.185e-01           0.191          -0.072           0.979       2.044e-02         -0.3493
 216       8.672e-01      -2.439e+00       9.024e-02           0.225          -0.080           0.971       1.880e-02         -0.1988
 217       9.841e-01      -2.439e+00       6.149e-02           0.253          -0.087           0.964       1.601e-02         -0.0589
 218       1.078e+00      -2.439e+00       3.575e-02           0.275          -0.093           0.957       1.224e-02          0.0821
 219       1.144e+00      -2.439e+00       1.626e-02           0.292          -0.098           0.951       7.683e-03          0.2078
 220       1.178e+00      -2.439e+00       4.231e-03           0.436          -0.145           0.888       2.797e-03          0.3663
Strip 9
 221       1.229e+00      -2.287e+00      -3.699e-03           0.377          -0.126          -0.917       3.141e-03          0.3400
 222       1.193e+00      -2.287e+00      -1.348e-02           0.224          -0.075          -0.972       8.723e-03          0.2208
 223       1.124e+00      -2.287e+00      -2.869e-02           0.210          -0.071          -0.975       1.393e-02          0.1200
 224       1.026e+00      -2.287e+00      -4.875e-02           0.192          -0.066          -0.979       1.827e-02          0.0044
 225       9.043e-01      -2.287e+00      -7.117e-02           0.171          -0.060          -0.983       2.152e-02         -0.1038
 226       7.658e-01      -2.287e+00      -9.316e-02           0.144          -0.054          -0.988       2.349e-02         -0.2108
 227       6.188e-01      -2.287e+00      -1.115e-01           0.105          -0.047          -0.993       2.406e-02         -0.3213
 228       4.718e-01      -2.287e+00      -1.227e-01           0.046          -0.039          -0.998       2.325e-02         -0.4298
 229       3.333e-01      -2.287e+00      -1.232e-01          -0.042          -0.029          -0.999       2.119e-02         -0.5104
 230       2.114e-01      -2.287e+00      -1.107e-01          -0.172          -0.020          -0.985       1.817e-02         -0.5043
 231       1.132e-01      -2.287e+00      -8.465e-02          -0.358          -0.010          -0.934       1.454e-02         -0.3144
 232       4.443e-02      -2.287e+00      -4.683e-02          -0.632          -0.002          -0.775       1.094e-02          0.2368
 233       8.990e-03      -2.287e+00      -2.547e-04          -0.941           0.002          -0.338       8.517e-03          0.9645
 234       8.990e-03      -2.287e+00       4.975e-02          -0.941          -0.002           0.338       8.515e-03          0.4150
 235       4.443e-02      -2.287e+00       9.625e-02          -0.631          -0.013           0.776       1.092e-02         -0.7641
 236       1.132e-01      -2.287e+00       1.337e-01          -0.352          -0.023           0.936       1.451e-02         -1.1542
 237       2.114e-01      -2.287e+00       1.586e-01          -0.159          -0.033           0.987       1.813e-02         -1.1217
 238       3.333e-01      -2.287e+00       1.690e-01          -0.021          -0.044           0.999       2.119e-02         -0.9515
 239       4.718e-01      -2.287e+00       1.648e-01           0.076          -0.054           0.996       2.331e-02         -0.7400
 240       6.188e-01      -2.287e+00       1.485e-01           0.143          -0.063           0.988       2.420e-02         -0.5376
 241       7.658e-01      -2.287e+00       1.235e-01           0.191          -0.072           0.979       2.371e-02         -0.3599
 242       9.043e-01      -2.287e+00       9.410e-02           0.225          -0.080           0.971       2.180e-02         -0.2038
 243       1.026e+00      -2.287e+00       6.412e-02           0.253          -0.087           0.964       1.857e-02         -0.0590
 244       1.124e+00      -2.287e+00       3.727e-02           0.275          -0.093           0.957       1.419e-02          0.0856
 245       1.193e+00      -2.287e+00       1.695e-02           0.292          -0.098           0.951       8.911e-03          0.2140
 246       1.229e+00      -2.287e+00       4.412e-03           0.436          -0.145           0.888       3.244e-03          0.3743
Strip 10
 247       1.284e+00      -2.120e+00      -3.866e-03           0.377          -0.126          -0.917       3.592e-03          0.3418
 248       1.247e+00      -2.120e+00      -1.409e-02           0.224          -0.075          -0.972       9.975e-03          0.2232
 249       1.175e+00      -2.120e+00      -2.999e-02           0.210          -0.071          -0.975       1.592e-02          0.1230
 250       1.072e+00      -2.120e+00      -5.096e-02           0.192          -0.066          -0.979       2.090e-02          0.0083
 251       9.451e-01      -2.120e+00      -7.439e-02           0.171          -0.060          -0.983       2.461e-02         -0.0996
 252       8.004e-01      -2.120e+00      -9.737e-02           0.144          -0.054          -0.988       2.686e-02         -0.2070
 253       6.467e-01      -2.120e+00      -1.166e-01           0.105          -0.047          -0.993       2.752e-02         -0.3183
 254       4.931e-01      -2.120e+00      -1.282e-01           0.046          -0.039          -0.998       2.659e-02         -0.4272
 255       3.484e-01      -2.120e+00      -1.288e-01          -0.042          -0.029          -0.999       2.424e-02         -0.5075
 256       2.210e-01      -2.120e+00      -1.157e-01          -0.172          -0.020          -0.985       2.078e-02         -0.5001
 257       1.184e-01      -2.120e+00      -8.847e-02          -0.358          -0.010          -0.934       1.663e-02         -0.3082
 258       4.644e-02      -2.120e+00      -4.895e-02          -0.632          -0.002          -0.775       1.251e-02          0.2444
 259       9.397e-03      -2.120e+00      -2.663e-04          -0.941           0.002          -0.338       9.739e-03          0.9671
 260       9.397e-03      -2.120e+00       5.200e-02          -0.941          -0.002           0.338       9.737e-03          0.4045
 261       4.644e-02      -2.120e+00       1.006e-01          -0.631          -0.013           0.776       1.249e-02         -0.7824
 262       1.184e-01      -2.120e+00       1.397e-01          -0.352          -0.023           0.936       1.659e-02         -1.1734
 263       2.210e-01      -2.120e+00       1.658e-01          -0.159          -0.033           0.987       2.074e-02         -1.1402
 264       3.484e-01      -2.120e+00       1.766e-01          -0.021          -0.044           0.999       2.423e-02         -0.9685
 265       4.931e-01      -2.120e+00       1.723e-01           0.076          -0.054           0.996       2.666e-02         -0.7544
 266       6.467e-01      -2.120e+00       1.552e-01           0.143          -0.063           0.988       2.768e-02         -0.5485
 267       8.004e-01      -2.120e+00       1.291e-01           0.191          -0.072           0.979       2.711e-02         -0.3669
 268       9.451e-01      -2.120e+00       9.835e-02           0.225          -0.080           0.971       2.493e-02         -0.2070
 269       1.072e+00      -2.120e+00       6.701e-02           0.253          -0.087           0.964       2.123e-02         -0.0590
 270       1.175e+00      -2.120e+00       3.896e-02           0.275          -0.093           0.957       1.623e-02          0.0883
 271       1.247e+00      -2.120e+00       1.772e-02           0.292          -0.098           0.951       1.019e-02          0.2185
 272       1.284e+00      -2.120e+00       4.611e-03           0.436          -0.145           0.888       3.710e-03          0.3801
Strip 11
 273       1.344e+00      -1.937e+00      -4.048e-03           0.377          -0.126          -0.917       4.058e-03          0.3433
 274       1.306e+00      -1.937e+00      -1.476e-02           0.224          -0.075          -0.972       1.127e-02          0.2251
 275       1.230e+00      -1.937e+00      -3.139e-02           0.210          -0.071          -0.975       1.799e-02          0.1254
 276       1.123e+00      -1.937e+00      -5.335e-02           0.192          -0.066          -0.979       2.361e-02          0.0115
 277       9.895e-01      -1.937e+00      -7.788e-02           0.171          -0.060          -0.983       2.781e-02         -0.0960
 278       8.380e-01      -1.937e+00      -1.019e-01           0.144          -0.054          -0.988       3.035e-02         -0.2034
 279       6.771e-01      -1.937e+00      -1.220e-01           0.105          -0.047          -0.993       3.109e-02         -0.3148
 280       5.163e-01      -1.937e+00      -1.343e-01           0.046          -0.039          -0.998       3.004e-02         -0.4239
 281       3.647e-01      -1.937e+00      -1.348e-01          -0.042          -0.029          -0.999       2.738e-02         -0.5039
 282       2.314e-01      -1.937e+00      -1.211e-01          -0.172          -0.020          -0.985       2.347e-02         -0.4958
 283       1.239e-01      -1.937e+00      -9.263e-02          -0.358          -0.010          -0.934       1.879e-02         -0.3028
 284       4.862e-02      -1.937e+00      -5.125e-02          -0.632          -0.002          -0.775       1.413e-02          0.2503
 285       9.838e-03      -1.937e+00      -2.788e-04          -0.941           0.002          -0.338       1.100e-02          0.9688
 286       9.838e-03      -1.937e+00       5.444e-02          -0.941          -0.002           0.338       1.100e-02          0.3973
 287       4.862e-02      -1.937e+00       1.053e-01          -0.631          -0.013           0.776       1.411e-02         -0.7945
 288       1.239e-01      -1.937e+00       1.463e-01          -0.352          -0.023           0.936       1.875e-02         -1.1859
 289       2.314e-01      -1.937e+00       1.736e-01          -0.159          -0.033           0.987       2.343e-02         -1.1520
 290       3.647e-01      -1.937e+00       1.849e-01          -0.021          -0.044           0.999       2.738e-02         -0.9792
 291       5.163e-01      -1.937e+00       1.804e-01           0.076          -0.054           0.996       3.012e-02         -0.7634
 292       6.771e-01      -1.937e+00       1.625e-01           0.143          -0.063           0.988       3.127e-02         -0.5551
 293       8.380e-01      -1.937e+00       1.352e-01           0.191          -0.072           0.979       3.063e-02         -0.3709
 294       9.895e-01      -1.937e+00       1.030e-01           0.225          -0.080           0.971       2.816e-02         -0.2084
 295       1.123e+00      -1.937e+00       7.016e-02           0.253          -0.087           0.964       2.399e-02         -0.0582
 296       1.230e+00      -1.937e+00       4.079e-02           0.275          -0.093           0.957       1.834e-02          0.0908
 297       1.306e+00      -1.937e+00       1.855e-02           0.292          -0.098           0.951       1.151e-02          0.2222
 298       1.344e+00      -1.937e+00       4.828e-03           0.436          -0.145           0.888       4.191e-03          0.3848
Strip 12
 299       1.409e+00      -1.742e+00      -4.243e-03           0.377          -0.126          -0.917       4.536e-03          0.3445
 300       1.368e+00      -1.742e+00      -1.547e-02           0.224          -0.075          -0.972       1.260e-02          0.2268
 301       1.290e+00      -1.742e+00      -3.291e-02           0.210          -0.071          -0.975       2.011e-02          0.1276
 302       1.177e+00      -1.742e+00      -5.592e-02           0.192          -0.066          -0.979       2.639e-02          0.0142
 303       1.037e+00      -1.742e+00      -8.163e-02           0.171          -0.060          -0.983       3.109e-02         -0.0927
 304       8.783e-01      -1.742e+00      -1.069e-01           0.144          -0.054          -0.988       3.392e-02         -0.1999
 305       7.097e-01      -1.742e+00      -1.279e-01           0.105          -0.047          -0.993       3.475e-02         -0.3113
 306       5.411e-01      -1.742e+00      -1.407e-01           0.046          -0.039          -0.998       3.358e-02         -0.4203
 307       3.823e-01      -1.742e+00      -1.413e-01          -0.042          -0.029          -0.999       3.061e-02         -0.5003
 308       2.425e-01      -1.742e+00      -1.269e-01          -0.172          -0.020          -0.985       2.624e-02         -0.4920
 309       1.299e-01      -1.742e+00      -9.709e-02          -0.358          -0.010          -0.934       2.101e-02         -0.2986
 310       5.096e-02      -1.742e+00      -5.371e-02          -0.632          -0.002          -0.775       1.580e-02          0.2543
 311       1.031e-02      -1.742e+00      -2.922e-04          -0.941           0.002          -0.338       1.230e-02          0.9699
 312       1.031e-02      -1.742e+00       5.706e-02          -0.941          -0.002           0.338       1.230e-02          0.3932
 313       5.096e-02      -1.742e+00       1.104e-01          -0.631          -0.013           0.776       1.578e-02         -0.8013
 314       1.299e-01      -1.742e+00       1.533e-01          -0.352          -0.023           0.936       2.096e-02         -1.1926
 315       2.425e-01      -1.742e+00       1.819e-01          -0.159          -0.033           0.987       2.619e-02         -1.1583
 316       3.823e-01      -1.742e+00       1.938e-01          -0.021          -0.044           0.999       3.061e-02         -0.9848
 317       5.411e-01      -1.742e+00       1.891e-01           0.076          -0.054           0.996       3.367e-02         -0.7678
 318       7.097e-01      -1.742e+00       1.703e-01           0.143          -0.063           0.988       3.496e-02         -0.5581
 319       8.783e-01      -1.742e+00       1.417e-01           0.191          -0.072           0.979       3.424e-02         -0.3722
 320       1.037e+00      -1.742e+00       1.079e-01           0.225          -0.080           0.971       3.148e-02         -0.2082
 321       1.177e+00      -1.742e+00       7.354e-02           0.253          -0.087           0.964       2.682e-02         -0.0566
 322       1.290e+00      -1.742e+00       4.275e-02           0.275          -0.093           0.957       2.050e-02          0.0935
 323       1.368e+00      -1.742e+00       1.944e-02           0.292          -0.098           0.951       1.287e-02          0.2256
 324       1.409e+00      -1.742e+00       5.060e-03           0.436          -0.145           0.888       4.685e-03          0.3887
Strip 13
 325       1.478e+00      -1.534e+00      -4.449e-03           0.377          -0.126          -0.917       5.021e-03          0.3460
 326       1.435e+00      -1.534e+00      -1.622e-02           0.224          -0.075          -0.972       1.395e-02          0.2287
 327       1.352e+00      -1.534e+00      -3.451e-02           0.210          -0.071          -0.975       2.226e-02          0.1298
 328       1.234e+00      -1.534e+00      -5.864e-02           0.192          -0.066          -0.979       2.921e-02          0.0170
 329       1.088e+00      -1.534e+00      -8.560e-02           0.171          -0.060          -0.983       3.441e-02         -0.0895
 330       9.211e-01      -1.534e+00      -1.121e-01           0.144          -0.054          -0.988       3.755e-02         -0.1964
 331       7.443e-01      -1.534e+00      -1.341e-01           0.105          -0.047          -0.993       3.847e-02         -0.3078
 332       5.675e-01      -1.534e+00      -1.476e-01           0.046          -0.039          -0.998       3.717e-02         -0.4168
 333       4.009e-01      -1.534e+00      -1.482e-01          -0.042          -0.029          -0.999       3.389e-02         -0.4969
 334       2.543e-01      -1.534e+00      -1.331e-01          -0.172          -0.020          -0.985       2.905e-02         -0.4887
 335       1.362e-01      -1.534e+00      -1.018e-01          -0.358          -0.010          -0.934       2.325e-02         -0.2956
 336       5.344e-02      -1.534e+00      -5.633e-02          -0.632          -0.002          -0.775       1.749e-02          0.2566
 337       1.081e-02      -1.534e+00      -3.064e-04          -0.941           0.002          -0.338       1.362e-02          0.9705
 338       1.081e-02      -1.534e+00       5.984e-02          -0.941          -0.002           0.338       1.361e-02          0.3918
 339       5.344e-02      -1.534e+00       1.158e-01          -0.631          -0.013           0.776       1.746e-02         -0.8033
 340       1.362e-01      -1.534e+00       1.608e-01          -0.352          -0.023           0.936       2.320e-02         -1.1945
 341       2.543e-01      -1.534e+00       1.908e-01          -0.159          -0.033           0.987       2.899e-02         -1.1599
 342       4.009e-01      -1.534e+00       2.033e-01          -0.021          -0.044           0.999       3.388e-02         -0.9861
 343       5.675e-01      -1.534e+00       1.983e-01           0.076          -0.054           0.996       3.727e-02         -0.7685
 344       7.443e-01      -1.534e+00       1.786e-01           0.143          -0.063           0.988       3.870e-02         -0.5580
 345       9.211e-01      -1.534e+00       1.486e-01           0.191          -0.072           0.979       3.790e-02         -0.3711
 346       1.088e+00      -1.534e+00       1.132e-01           0.225          -0.080           0.971       3.485e-02         -0.2062
 347       1.234e+00      -1.534e+00       7.712e-02           0.253          -0.087           0.964       2.969e-02         -0.0539
 348       1.352e+00      -1.534e+00       4.483e-02           0.275          -0.093           0.957       2.269e-02          0.0967
 349       1.435e+00      -1.534e+00       2.039e-02           0.292          -0.098           0.951       1.425e-02          0.2291
 350       1.478e+00      -1.534e+00       5.307e-03           0.436          -0.145           0.888       5.187e-03          0.3926
Strip 14
 351       1.550e+00      -1.316e+00      -4.666e-03           0.377          -0.126          -0.917       5.507e-03          0.3478
 352       1.505e+00      -1.316e+00      -1.701e-02           0.224          -0.075          -0.972       1.530e-02          0.2309
 353       1.418e+00      -1.316e+00      -3.619e-02           0.210          -0.071          -0.975       2.442e-02          0.1323
 354       1.294e+00      -1.316e+00      -6.150e-02           0.192          -0.066          -0.979       3.204e-02          0.0200
 355       1.141e+00      -1.316e+00      -8.978e-02           0.171          -0.060          -0.983       3.774e-02         -0.0862
 356       9.660e-01      -1.316e+00      -1.175e-01           0.144          -0.054          -0.988       4.119e-02         -0.1928
 357       7.806e-01      -1.316e+00      -1.407e-01           0.105          -0.047          -0.993       4.220e-02         -0.3040
 358       5.951e-01      -1.316e+00      -1.548e-01           0.046          -0.039          -0.998       4.077e-02         -0.4132
 359       4.205e-01      -1.316e+00      -1.554e-01          -0.042          -0.029          -0.999       3.717e-02         -0.4937
 360       2.667e-01      -1.316e+00      -1.396e-01          -0.172          -0.020          -0.985       3.186e-02         -0.4860
 361       1.429e-01      -1.316e+00      -1.068e-01          -0.358          -0.010          -0.934       2.550e-02         -0.2937
 362       5.605e-02      -1.316e+00      -5.908e-02          -0.632          -0.002          -0.775       1.918e-02          0.2575
 363       1.134e-02      -1.316e+00      -3.214e-04          -0.941           0.002          -0.338       1.493e-02          0.9706
 364       1.134e-02      -1.316e+00       6.276e-02          -0.941          -0.002           0.338       1.493e-02          0.3929
 365       5.605e-02      -1.316e+00       1.214e-01          -0.631          -0.013           0.776       1.916e-02         -0.8009
 366       1.429e-01      -1.316e+00       1.686e-01          -0.352          -0.023           0.936       2.545e-02         -1.1919
 367       2.667e-01      -1.316e+00       2.001e-01          -0.159          -0.033           0.987       3.180e-02         -1.1575
 368       4.205e-01      -1.316e+00       2.132e-01          -0.021          -0.044           0.999       3.716e-02         -0.9836
 369       5.951e-01      -1.316e+00       2.079e-01           0.076          -0.054           0.996       4.088e-02         -0.7658
 370       7.806e-01      -1.316e+00       1.873e-01           0.143          -0.063           0.988       4.244e-02         -0.5550
 371       9.660e-01      -1.316e+00       1.558e-01           0.191          -0.072           0.979       4.157e-02         -0.3678
 372       1.141e+00      -1.316e+00       1.187e-01           0.225          -0.080           0.971       3.822e-02         -0.2025
 373       1.294e+00      -1.316e+00       8.088e-02           0.253          -0.087           0.964       3.256e-02         -0.0500
 374       1.418e+00      -1.316e+00       4.702e-02           0.275          -0.093           0.957       2.489e-02          0.1008
 375       1.505e+00      -1.316e+00       2.138e-02           0.292          -0.098           0.951       1.563e-02          0.2330
 376       1.550e+00      -1.316e+00       5.566e-03           0.436          -0.145           0.888       5.689e-03          0.3966
Strip 15
 377       1.625e+00      -1.090e+00      -4.892e-03           0.377          -0.126          -0.917       5.988e-03          0.3502
 378       1.578e+00      -1.090e+00      -1.783e-02           0.224          -0.075          -0.972       1.663e-02          0.2336
 379       1.487e+00      -1.090e+00      -3.794e-02           0.210          -0.071          -0.975       2.655e-02          0.1353
 380       1.357e+00      -1.090e+00      -6.448e-02           0.192          -0.066          -0.979       3.484e-02          0.0234
 381       1.196e+00      -1.090e+00      -9.413e-02           0.171          -0.060          -0.983       4.103e-02         -0.0822
 382       1.013e+00      -1.090e+00      -1.232e-01           0.144          -0.054          -0.988       4.478e-02         -0.1886
 383       8.184e-01      -1.090e+00      -1.475e-01           0.105          -0.047          -0.993       4.588e-02         -0.2999
 384       6.240e-01      -1.090e+00      -1.623e-01           0.046          -0.039          -0.998       4.433e-02         -0.4094
 385       4.408e-01      -1.090e+00      -1.630e-01          -0.042          -0.029          -0.999       4.041e-02         -0.4904
 386       2.797e-01      -1.090e+00      -1.464e-01          -0.172          -0.020          -0.985       3.464e-02         -0.4837
 387       1.498e-01      -1.090e+00      -1.120e-01          -0.358          -0.010          -0.934       2.773e-02         -0.2927
 388       5.876e-02      -1.090e+00      -6.194e-02          -0.632          -0.002          -0.775       2.085e-02          0.2570
 389       1.189e-02      -1.090e+00      -3.369e-04          -0.941           0.002          -0.338       1.624e-02          0.9704
 390       1.189e-02      -1.090e+00       6.580e-02          -0.941          -0.002           0.338       1.623e-02          0.3962
 391       5.876e-02      -1.090e+00       1.273e-01          -0.631          -0.013           0.776       2.083e-02         -0.7949
 392       1.498e-01      -1.090e+00       1.768e-01          -0.352          -0.023           0.936       2.767e-02         -1.1857
 393       2.797e-01      -1.090e+00       2.098e-01          -0.159          -0.033           0.987       3.457e-02         -1.1514
 394       4.408e-01      -1.090e+00       2.235e-01          -0.021          -0.044           0.999       4.040e-02         -0.9776
 395       6.240e-01      -1.090e+00       2.180e-01           0.076          -0.054           0.996       4.444e-02         -0.7599
 396       8.184e-01      -1.090e+00       1.964e-01           0.143          -0.063           0.988       4.614e-02         -0.5490
 397       1.013e+00      -1.090e+00       1.634e-01           0.191          -0.072           0.979       4.520e-02         -0.3619
 398       1.196e+00      -1.090e+00       1.245e-01           0.225          -0.080           0.971       4.156e-02         -0.1969
 399       1.357e+00      -1.090e+00       8.480e-02           0.253          -0.087           0.964       3.540e-02         -0.0447
 400       1.487e+00      -1.090e+00       4.930e-02           0.275          -0.093           0.957       2.706e-02          0.1058
 401       1.578e+00      -1.090e+00       2.242e-02           0.292          -0.098           0.951       1.699e-02          0.2377
 402       1.625e+00      -1.090e+00       5.835e-03           0.436          -0.145           0.888       6.185e-03          0.4013
Strip 16
 403       1.702e+00      -8.553e-01      -5.126e-03           0.377          -0.126          -0.917       6.454e-03          0.3535
 404       1.653e+00      -8.553e-01      -1.869e-02           0.224          -0.075          -0.972       1.793e-02          0.2371
 405       1.558e+00      -8.553e-01      -3.976e-02           0.210          -0.071          -0.975       2.862e-02          0.1391
 406       1.422e+00      -8.553e-01      -6.756e-02           0.192          -0.066          -0.979       3.755e-02          0.0278
 407       1.253e+00      -8.553e-01      -9.862e-02           0.171          -0.060          -0.983       4.423e-02         -0.0773
 408       1.061e+00      -8.553e-01      -1.291e-01           0.144          -0.054          -0.988       4.827e-02         -0.1834
 409       8.575e-01      -8.553e-01      -1.545e-01           0.105          -0.047          -0.993       4.945e-02         -0.2948
 410       6.537e-01      -8.553e-01      -1.700e-01           0.046          -0.039          -0.998       4.778e-02         -0.4049
 411       4.619e-01      -8.553e-01      -1.707e-01          -0.042          -0.029          -0.999       4.355e-02         -0.4869
 412       2.930e-01      -8.553e-01      -1.533e-01          -0.172          -0.020          -0.985       3.733e-02         -0.4817
 413       1.569e-01      -8.553e-01      -1.173e-01          -0.358          -0.010          -0.934       2.989e-02         -0.2925
 414       6.157e-02      -8.553e-01      -6.489e-02          -0.632          -0.002          -0.775       2.248e-02          0.2554
 415       1.246e-02      -8.553e-01      -3.530e-04          -0.941           0.002          -0.338       1.750e-02          0.9698
 416       1.246e-02      -8.553e-01       6.894e-02          -0.941          -0.002           0.338       1.750e-02          0.4014
 417       6.157e-02      -8.553e-01       1.334e-01          -0.631          -0.013           0.776       2.245e-02         -0.7856
 418       1.569e-01      -8.553e-01       1.852e-01          -0.352          -0.023           0.936       2.982e-02         -1.1759
 419       2.930e-01      -8.553e-01       2.198e-01          -0.159          -0.033           0.987       3.726e-02         -1.1418
 420       4.619e-01      -8.553e-01       2.342e-01          -0.021          -0.044           0.999       4.355e-02         -0.9681
 421       6.537e-01      -8.553e-01       2.284e-01           0.076          -0.054           0.996       4.790e-02         -0.7504
 422       8.575e-01      -8.553e-01       2.057e-01           0.143          -0.063           0.988       4.974e-02         -0.5397
 423       1.061e+00      -8.553e-01       1.712e-01           0.191          -0.072           0.979       4.872e-02         -0.3531
 424       1.253e+00      -8.553e-01       1.304e-01           0.225          -0.080           0.971       4.479e-02         -0.1887
 425       1.422e+00      -8.553e-01       8.885e-02           0.253          -0.087           0.964       3.816e-02         -0.0373
 426       1.558e+00      -8.553e-01       5.165e-02           0.275          -0.093           0.957       2.916e-02          0.1123
 427       1.653e+00      -8.553e-01       2.349e-02           0.292          -0.098           0.951       1.831e-02          0.2435
 428       1.702e+00      -8.553e-01       6.114e-03           0.436          -0.145           0.888       6.666e-03          0.4069
Strip 17
 429       1.782e+00      -6.151e-01      -5.365e-03           0.377          -0.126          -0.917       6.898e-03          0.3580
 430       1.731e+00      -6.151e-01      -1.956e-02           0.224          -0.075          -0.972       1.916e-02          0.2419
 431       1.631e+00      -6.151e-01      -4.161e-02           0.210          -0.071          -0.975       3.059e-02          0.1442
 432       1.488e+00      -6.151e-01      -7.071e-02           0.192          -0.066          -0.979       4.014e-02          0.0339
 433       1.312e+00      -6.151e-01      -1.032e-01           0.171          -0.060          -0.983       4.727e-02         -0.0705
 434       1.111e+00      -6.151e-01      -1.351e-01           0.144          -0.054          -0.988       5.159e-02         -0.1763
 435       8.975e-01      -6.151e-01      -1.618e-01           0.105          -0.047          -0.993       5.285e-02         -0.2880
 436       6.843e-01      -6.151e-01      -1.780e-01           0.046          -0.039          -0.998       5.107e-02         -0.3991
 437       4.834e-01      -6.151e-01      -1.787e-01          -0.042          -0.029          -0.999       4.655e-02         -0.4827
 438       3.067e-01      -6.151e-01      -1.605e-01          -0.172          -0.020          -0.985       3.990e-02         -0.4796
 439       1.643e-01      -6.151e-01      -1.228e-01          -0.358          -0.010          -0.934       3.195e-02         -0.2929
 440       6.444e-02      -6.151e-01      -6.792e-02          -0.632          -0.002          -0.775       2.403e-02          0.2528
 441       1.304e-02      -6.151e-01      -3.695e-04          -0.941           0.002          -0.338       1.871e-02          0.9689
 442       1.304e-02      -6.151e-01       7.216e-02          -0.941          -0.002           0.338       1.870e-02          0.4080
 443       6.444e-02      -6.151e-01       1.396e-01          -0.631          -0.013           0.776       2.399e-02         -0.7737
 444       1.643e-01      -6.151e-01       1.939e-01          -0.352          -0.023           0.936       3.187e-02         -1.1630
 445       3.067e-01      -6.151e-01       2.300e-01          -0.159          -0.033           0.987       3.983e-02         -1.1287
 446       4.834e-01      -6.151e-01       2.451e-01          -0.021          -0.044           0.999       4.654e-02         -0.9546
 447       6.843e-01      -6.151e-01       2.391e-01           0.076          -0.054           0.996       5.120e-02         -0.7368
 448       8.975e-01      -6.151e-01       2.153e-01           0.143          -0.063           0.988       5.316e-02         -0.5264
 449       1.111e+00      -6.151e-01       1.792e-01           0.191          -0.072           0.979       5.207e-02         -0.3404
 450       1.312e+00      -6.151e-01       1.365e-01           0.225          -0.080           0.971       4.788e-02         -0.1771
 451       1.488e+00      -6.151e-01       9.299e-02           0.253          -0.087           0.964       4.078e-02         -0.0271
 452       1.631e+00      -6.151e-01       5.406e-02           0.275          -0.093           0.957       3.117e-02          0.1209
 453       1.731e+00      -6.151e-01       2.458e-02           0.292          -0.098           0.951       1.957e-02          0.2510
 454       1.782e+00      -6.151e-01       6.399e-03           0.436          -0.145           0.888       7.125e-03          0.4141
Strip 18
 455       1.863e+00      -3.708e-01      -5.608e-03           0.377          -0.126          -0.917       7.312e-03          0.3645
 456       1.809e+00      -3.708e-01      -2.044e-02           0.224          -0.075          -0.972       2.031e-02          0.2489
 457       1.705e+00      -3.708e-01      -4.350e-02           0.210          -0.071          -0.975       3.242e-02          0.1522
 458       1.556e+00      -3.708e-01      -7.392e-02           0.192          -0.066          -0.979       4.254e-02          0.0432
 459       1.371e+00      -3.708e-01      -1.079e-01           0.171          -0.060          -0.983       5.011e-02         -0.0601
 460       1.161e+00      -3.708e-01      -1.413e-01           0.144          -0.054          -0.988       5.468e-02         -0.1658
 461       9.382e-01      -3.708e-01      -1.691e-01           0.105          -0.047          -0.993       5.602e-02         -0.2782
 462       7.153e-01      -3.708e-01      -1.860e-01           0.046          -0.039          -0.998       5.413e-02         -0.3909
 463       5.054e-01      -3.708e-01      -1.868e-01          -0.042          -0.029          -0.999       4.934e-02         -0.4771
 464       3.206e-01      -3.708e-01      -1.678e-01          -0.172          -0.020          -0.985       4.229e-02         -0.4773
 465       1.717e-01      -3.708e-01      -1.283e-01          -0.358          -0.010          -0.934       3.386e-02         -0.2940
 466       6.736e-02      -3.708e-01      -7.101e-02          -0.632          -0.002          -0.775       2.546e-02          0.2494
 467       1.363e-02      -3.708e-01      -3.863e-04          -0.941           0.002          -0.338       1.983e-02          0.9679
 468       1.363e-02      -3.708e-01       7.543e-02          -0.941          -0.002           0.338       1.982e-02          0.4156
 469       6.736e-02      -3.708e-01       1.459e-01          -0.631          -0.013           0.776       2.543e-02         -0.7601
 470       1.717e-01      -3.708e-01       2.027e-01          -0.352          -0.023           0.936       3.378e-02         -1.1476
 471       3.206e-01      -3.708e-01       2.405e-01          -0.159          -0.033           0.987       4.221e-02         -1.1117
 472       5.054e-01      -3.708e-01       2.562e-01          -0.021          -0.044           0.999       4.933e-02         -0.9361
 473       7.153e-01      -3.708e-01       2.499e-01           0.076          -0.054           0.996       5.427e-02         -0.7176
 474       9.382e-01      -3.708e-01       2.251e-01           0.143          -0.063           0.988       5.635e-02         -0.5073
 475       1.161e+00      -3.708e-01       1.873e-01           0.191          -0.072           0.979       5.519e-02         -0.3221
 476       1.371e+00      -3.708e-01       1.427e-01           0.225          -0.080           0.971       5.075e-02         -0.1602
 477       1.556e+00      -3.708e-01       9.721e-02           0.253          -0.087           0.964       4.323e-02         -0.0124
 478       1.705e+00      -3.708e-01       5.652e-02           0.275          -0.093           0.957       3.304e-02          0.1333
 479       1.809e+00      -3.708e-01       2.570e-02           0.292          -0.098           0.951       2.074e-02          0.2613
 480       1.863e+00      -3.708e-01       6.689e-03           0.436          -0.145           0.888       7.552e-03          0.4239
Strip 19
 481       1.944e+00      -1.239e-01      -5.854e-03           0.377          -0.126          -0.917       7.685e-03          0.3707
 482       1.888e+00      -1.239e-01      -2.134e-02           0.224          -0.075          -0.972       2.134e-02          0.2603
 483       1.779e+00      -1.239e-01      -4.541e-02           0.210          -0.071          -0.975       3.407e-02          0.1682
 484       1.624e+00      -1.239e-01      -7.716e-02           0.192          -0.066          -0.979       4.471e-02          0.0612
 485       1.431e+00      -1.239e-01      -1.126e-01           0.171          -0.060          -0.983       5.266e-02         -0.0423
 486       1.212e+00      -1.239e-01      -1.474e-01           0.144          -0.054          -0.988       5.747e-02         -0.1492
 487       9.794e-01      -1.239e-01      -1.765e-01           0.105          -0.047          -0.993       5.888e-02         -0.2633
 488       7.467e-01      -1.239e-01      -1.942e-01           0.046          -0.039          -0.998       5.689e-02         -0.3786
 489       5.275e-01      -1.239e-01      -1.950e-01          -0.042          -0.029          -0.999       5.186e-02         -0.4688
 490       3.347e-01      -1.239e-01      -1.751e-01          -0.172          -0.020          -0.985       4.445e-02         -0.4743
 491       1.792e-01      -1.239e-01      -1.340e-01          -0.358          -0.010          -0.934       3.559e-02         -0.2963
 492       7.032e-02      -1.239e-01      -7.412e-02          -0.632          -0.002          -0.775       2.676e-02          0.2447
 493       1.423e-02      -1.239e-01      -4.032e-04          -0.941           0.002          -0.338       2.084e-02          0.9669
 494       1.423e-02      -1.239e-01       7.874e-02          -0.941          -0.002           0.338       2.083e-02          0.4220
 495       7.032e-02      -1.239e-01       1.523e-01          -0.631          -0.013           0.776       2.673e-02         -0.7481
 496       1.792e-01      -1.239e-01       2.116e-01          -0.352          -0.023           0.936       3.551e-02         -1.1303
 497       3.347e-01      -1.239e-01       2.510e-01          -0.159          -0.033           0.987       4.437e-02         -1.0894
 498       5.275e-01      -1.239e-01       2.675e-01          -0.021          -0.044           0.999       5.185e-02         -0.9105
 499       7.467e-01      -1.239e-01       2.609e-01           0.076          -0.054           0.996       5.704e-02         -0.6905
 500       9.794e-01      -1.239e-01       2.350e-01           0.143          -0.063           0.988       5.922e-02         -0.4799
 501       1.212e+00      -1.239e-01       1.955e-01           0.191          -0.072           0.979       5.801e-02         -0.2949
 502       1.431e+00      -1.239e-01       1.489e-01           0.225          -0.080           0.971       5.334e-02         -0.1335
 503       1.624e+00      -1.239e-01       1.015e-01           0.253          -0.087           0.964       4.543e-02          0.0129
 504       1.779e+00      -1.239e-01       5.899e-02           0.275          -0.093           0.957       3.473e-02          0.1548
 505       1.888e+00      -1.239e-01       2.683e-02           0.292          -0.098           0.951       2.180e-02          0.2763
 506       1.944e+00      -1.239e-01       6.983e-03           0.436          -0.145           0.888       7.938e-03          0.4327
Strip 20
 507       1.944e+00       1.239e-01      -5.854e-03           0.377           0.126          -0.917       7.685e-03          0.3707
 508       1.888e+00       1.239e-01      -2.134e-02           0.224           0.075          -0.972       2.134e-02          0.2603
 509       1.779e+00       1.239e-01      -4.541e-02           0.210           0.071          -0.975       3.407e-02          0.1682
 510       1.624e+00       1.239e-01      -7.716e-02           0.192           0.066          -0.979       4.471e-02          0.0612
 511       1.431e+00       1.239e-01      -1.126e-01           0.171           0.060          -0.983       5.266e-02         -0.0423
 512       1.212e+00       1.239e-01      -1.474e-01           0.144           0.054          -0.988       5.747e-02         -0.1492
 513       9.794e-01       1.239e-01      -1.765e-01           0.105           0.047          -0.993       5.888e-02         -0.2633
 514       7.467e-01       1.239e-01      -1.942e-01           0.046           0.039          -0.998       5.689e-02         -0.3786
 515       5.275e-01       1.239e-01      -1.950e-01          -0.042           0.029          -0.999       5.186e-02         -0.4688
 516       3.347e-01       1.239e-01      -1.751e-01          -0.172           0.020          -0.985       4.445e-02         -0.4743
 517       1.792e-01       1.239e-01      -1.340e-01          -0.358           0.010          -0.934       3.559e-02         -0.2963
 518       7.032e-02       1.239e-01      -7.412e-02          -0.632           0.002          -0.775       2.676e-02          0.2447
 519       1.423e-02       1.239e-01      -4.032e-04          -0.941          -0.002          -0.338       2.084e-02          0.9669
 520       1.423e-02       1.239e-01       7.874e-02          -0.941           0.002           0.338       2.083e-02          0.4220
 521       7.032e-02       1.239e-01       1.523e-01          -0.631           0.013           0.776       2.673e-02         -0.7481
 522       1.792e-01       1.239e-01       2.116e-01          -0.352           0.023           0.936       3.551e-02         -1.1303
 523       3.347e-01       1.239e-01       2.510e-01          -0.159           0.033           0.987       4.437e-02         -1.0894
 524       5.275e-01       1.239e-01       2.675e-01          -0.021           0.044           0.999       5.185e-02         -0.9105
 525       7.467e-01       1.239e-01       2.609e-01           0.076           0.054           0.996       5.704e-02         -0.6905
 526       9.794e-01       1.239e-01       2.350e-01           0.143           0.063           0.988       5.922e-02         -0.4799
 527       1.212e+00       1.239e-01       1.955e-01           0.191           0.072           0.979       5.801e-02         -0.2949
 528       1.431e+00       1.239e-01       1.489e-01           0.225           0.080           0.971       5.334e-02         -0.1335
 529       1.624e+00       1.239e-01       1.015e-01           0.253           0.087           0.964       4.543e-02          0.0129
 530       1.779e+00       1.239e-01       5.899e-02           0.275           0.093           0.957       3.473e-02          0.1548
 531       1.888e+00       1.239e-01       2.683e-02           0.292           0.098           0.951       2.180e-02          0.2763
 532       1.944e+00       1.239e-01       6.983e-03           0.436           0.145           0.888       7.938e-03          0.4327
Strip 21
 533       1.863e+00       3.708e-01      -5.608e-03           0.377           0.126          -0.917       7.312e-03          0.3645
 534       1.809e+00       3.708e-01      -2.044e-02           0.224           0.075          -0.972       2.031e-02          0.2489
 535       1.705e+00       3.708e-01      -4.350e-02           0.210           0.071          -0.975       3.242e-02          0.1522
 536       1.556e+00       3.708e-01      -7.392e-02           0.192           0.066          -0.979       4.254e-02          0.0432
 537       1.371e+00       3.708e-01      -1.079e-01           0.171           0.060          -0.983       5.011e-02         -0.0601
 538       1.161e+00       3.708e-01      -1.413e-01           0.144           0.054          -0.988       5.468e-02         -0.1658
 539       9.382e-01       3.708e-01      -1.691e-01           0.105           0.047          -0.993       5.602e-02         -0.2782
 540       7.153e-01       3.708e-01      -1.860e-01           0.046           0.039          -0.998       5.413e-02         -0.3909
 541       5.054e-01       3.708e-01      -1.868e-01          -0.042           0.029          -0.999       4.934e-02         -0.4771
 542       3.206e-01       3.708e-01      -1.678e-01          -0.172           0.020          -0.985       4.229e-02         -0.4773
 543       1.717e-01       3.708e-01      -1.283e-01          -0.358           0.010          -0.934       3.386e-02         -0.2940
 544       6.736e-02       3.708e-01      -7.101e-02          -0.632           0.002          -0.775       2.546e-02          0.2494
 545       1.363e-02       3.708e-01      -3.863e-04          -0.941          -0.002          -0.338       1.983e-02          0.9679
 546       1.363e-02       3.708e-01       7.543e-02          -0.941           0.002           0.338       1.982e-02          0.4156
 547       6.736e-02       3.708e-01       1.459e-01          -0.631           0.013           0.776       2.543e-02         -0.7601
 548       1.717e-01       3.708e-01       2.027e-01          -0.352           0.023           0.936       3.378e-02         -1.1476
 549       3.206e-01       3.708e-01       2.405e-01          -0.159           0.033           0.987       4.221e-02         -1.1117
 550       5.054e-01       3.708e-01       2.562e-01          -0.021           0.044           0.999       4.933e-02         -0.9361
 551       7.153e-01       3.708e-01       2.499e-01           0.076           0.054           0.996       5.427e-02         -0.7176
 552       9.382e-01       3.708e-01       2.251e-01           0.143           0.063           0.988       5.635e-02         -0.5073
 553       1.161e+00       3.708e-01       1.873e-01           0.191           0.072           0.979       5.519e-02         -0.3221
 554       1.371e+00       3.708e-01       1.427e-01           0.225           0.080           0.971       5.075e-02         -0.1602
 555       1.556e+00       3.708e-01       9.721e-02           0.253           0.087           0.964       4.323e-02         -0.0124
 556       1.705e+00       3.708e-01       5.652e-02           0.275           0.093           0.957       3.304e-02          0.1333
 557       1.809e+00       3.708e-01       2.570e-02           0.292           0.098           0.951       2.074e-02          0.2613
 558       1.863e+00       3.708e-01       6.689e-03           0.436           0.145           0.888       7.552e-03          0.4239
Strip 22
 559       1.782e+00       6.151e-01      -5.365e-03           0.377           0.126          -0.917       6.898e-03          0.3580
 560       1.731e+00       6.151e-01      -1.956e-02           0.224           0.075          -0.972       1.916e-02          0.2419
 561       1.631e+00       6.151e-01      -4.161e-02           0.210           0.071          -0.975       3.059e-02          0.1442
 562       1.488e+00       6.151e-01      -7.071e-02           0.192           0.066          -0.979       4.014e-02          0.0339
 563       1.312e+00       6.151e-01      -1.032e-01           0.171           0.060          -0.983       4.727e-02         -0.0705
 564       1.111e+00       6.151e-01      -1.351e-01           0.144           0.054          -0.988       5.159e-02         -0.1763
 565       8.975e-01       6.151e-01      -1.618e-01           0.105           0.047          -0.993       5.285e-02         -0.2880
 566       6.843e-01       6.151e-01      -1.780e-01           0.046           0.039          -0.998       5.107e-02         -0.3991
 567       4.834e-01       6.151e-01      -1.787e-01          -0.042           0.029          -0.999       4.655e-02         -0.4827
 568       3.067e-01       6.151e-01      -1.605e-01          -0.172           0.020          -0.985       3.990e-02         -0.4796
[...]
 852       4.202e-01       2.693e+00      -1.093e-01           0.046           0.039          -0.998       1.408e-02         -0.4192
 853       2.969e-01       2.693e+00      -1.098e-01          -0.042           0.029          -0.999       1.283e-02         -0.4998
 854       1.883e-01       2.693e+00      -9.857e-02          -0.172           0.020          -0.985       1.100e-02         -0.5038
 855       1.009e-01       2.693e+00      -7.540e-02          -0.358           0.010          -0.934       8.804e-03         -0.3321
 856       3.958e-02       2.693e+00      -4.172e-02          -0.632           0.002          -0.775       6.621e-03          0.2027
 857       8.008e-03       2.693e+00      -2.269e-04          -0.941          -0.002          -0.338       5.155e-03          0.9485
 858       8.008e-03       2.693e+00       4.432e-02          -0.941           0.002           0.338       5.154e-03          0.4651
 859       3.958e-02       2.693e+00       8.573e-02          -0.631           0.013           0.776       6.613e-03         -0.6655
 860       1.009e-01       2.693e+00       1.191e-01          -0.352           0.023           0.936       8.784e-03         -1.0423
 861       1.883e-01       2.693e+00       1.413e-01          -0.159           0.033           0.987       1.098e-02         -1.0073
 862       2.969e-01       2.693e+00       1.505e-01          -0.021           0.044           0.999       1.283e-02         -0.8430
 863       4.202e-01       2.693e+00       1.468e-01           0.076           0.054           0.996       1.411e-02         -0.6473
 864       5.512e-01       2.693e+00       1.323e-01           0.143           0.063           0.988       1.465e-02         -0.4678
 865       6.821e-01       2.693e+00       1.100e-01           0.191           0.072           0.979       1.435e-02         -0.3157
 866       8.055e-01       2.693e+00       8.382e-02           0.225           0.080           0.971       1.320e-02         -0.1845
 867       9.140e-01       2.693e+00       5.711e-02           0.253           0.087           0.964       1.124e-02         -0.0613
 868       1.001e+00       2.693e+00       3.320e-02           0.275           0.093           0.957       8.591e-03          0.0666
 869       1.063e+00       2.693e+00       1.510e-02           0.292           0.098           0.951       5.394e-03          0.1835
 870       1.094e+00       2.693e+00       3.930e-03           0.436           0.145           0.888       1.964e-03          0.3360
Strip 34
 871       1.061e+00       2.792e+00      -3.196e-03           0.377           0.126          -0.917       1.526e-03          0.3166
 872       1.031e+00       2.792e+00      -1.165e-02           0.224           0.075          -0.972       4.239e-03          0.1894
 873       9.714e-01       2.792e+00      -2.479e-02           0.210           0.071          -0.975       6.767e-03          0.0806
 874       8.865e-01       2.792e+00      -4.212e-02           0.192           0.066          -0.979       8.880e-03         -0.0371
 875       7.812e-01       2.792e+00      -6.149e-02           0.171           0.060          -0.983       1.046e-02         -0.1336
 876       6.616e-01       2.792e+00      -8.049e-02           0.144           0.054          -0.988       1.141e-02         -0.2202
 877       5.346e-01       2.792e+00      -9.636e-02           0.105           0.047          -0.993       1.169e-02         -0.3092
 878       4.076e-01       2.792e+00      -1.060e-01           0.046           0.039          -0.998       1.130e-02         -0.4024
 879       2.880e-01       2.792e+00      -1.065e-01          -0.042           0.029          -0.999       1.030e-02         -0.4810
 880       1.827e-01       2.792e+00      -9.560e-02          -0.172           0.020          -0.985       8.828e-03         -0.4911
 881       9.784e-02       2.792e+00      -7.313e-02          -0.358           0.010          -0.934       7.068e-03         -0.3333
 882       3.839e-02       2.792e+00      -4.046e-02          -0.632           0.002          -0.775       5.315e-03          0.1868
 883       7.767e-03       2.792e+00      -2.201e-04          -0.941          -0.002          -0.338       4.139e-03          0.9364
 884       7.767e-03       2.792e+00       4.298e-02          -0.941           0.002           0.338       4.138e-03          0.4850
 885       3.839e-02       2.792e+00       8.315e-02          -0.631           0.013           0.776       5.308e-03         -0.6166
 886       9.784e-02       2.792e+00       1.155e-01          -0.352           0.023           0.936       7.052e-03         -0.9803
 887       1.827e-01       2.792e+00       1.370e-01          -0.159           0.033           0.987       8.812e-03         -0.9406
 888       2.880e-01       2.792e+00       1.460e-01          -0.021           0.044           0.999       1.030e-02         -0.7801
 889       4.076e-01       2.792e+00       1.424e-01           0.076           0.054           0.996       1.133e-02         -0.5953
 890       5.346e-01       2.792e+00       1.283e-01           0.143           0.063           0.988       1.176e-02         -0.4300
 891       6.616e-01       2.792e+00       1.067e-01           0.191           0.072           0.979       1.152e-02         -0.2931
 892       7.812e-01       2.792e+00       8.129e-02           0.225           0.080           0.971       1.059e-02         -0.1769
 893       8.865e-01       2.792e+00       5.539e-02           0.253           0.087           0.964       9.023e-03         -0.0678
 894       9.714e-01       2.792e+00       3.220e-02           0.275           0.093           0.957       6.897e-03          0.0485
 895       1.031e+00       2.792e+00       1.464e-02           0.292           0.098           0.951       4.330e-03          0.1576
 896       1.061e+00       2.792e+00       3.812e-03           0.436           0.145           0.888       1.576e-03          0.3051
Strip 35
 897       1.035e+00       2.873e+00      -3.116e-03           0.377           0.126          -0.917       1.168e-03          0.2968
 898       1.005e+00       2.873e+00      -1.136e-02           0.224           0.075          -0.972       3.244e-03          0.1629
 899       9.470e-01       2.873e+00      -2.416e-02           0.210           0.071          -0.975       5.178e-03          0.0503
 900       8.643e-01       2.873e+00      -4.106e-02           0.192           0.066          -0.979       6.795e-03         -0.0613
 901       7.616e-01       2.873e+00      -5.995e-02           0.171           0.060          -0.983       8.004e-03         -0.1442
 902       6.450e-01       2.873e+00      -7.847e-02           0.144           0.054          -0.988       8.735e-03         -0.2167
 903       5.212e-01       2.873e+00      -9.394e-02           0.105           0.047          -0.993       8.948e-03         -0.2929
 904       3.974e-01       2.873e+00      -1.034e-01           0.046           0.039          -0.998       8.647e-03         -0.3756
 905       2.807e-01       2.873e+00      -1.038e-01          -0.042           0.029          -0.999       7.882e-03         -0.4493
 906       1.781e-01       2.873e+00      -9.320e-02          -0.172           0.020          -0.985       6.756e-03         -0.4657
 907       9.539e-02       2.873e+00      -7.130e-02          -0.358           0.010          -0.934       5.409e-03         -0.3281
 908       3.742e-02       2.873e+00      -3.945e-02          -0.632           0.002          -0.775       4.068e-03          0.1657
 909       7.572e-03       2.873e+00      -2.146e-04          -0.941          -0.002          -0.338       3.167e-03          0.9120
 910       7.572e-03       2.873e+00       4.191e-02          -0.941           0.002           0.338       3.166e-03          0.4987
 911       3.742e-02       2.873e+00       8.107e-02          -0.631           0.013           0.776       4.062e-03         -0.5613
 912       9.539e-02       2.873e+00       1.126e-01          -0.352           0.023           0.936       5.396e-03         -0.9023
 913       1.781e-01       2.873e+00       1.336e-01          -0.159           0.033           0.987       6.743e-03         -0.8556
 914       2.807e-01       2.873e+00       1.423e-01          -0.021           0.044           0.999       7.880e-03         -0.7022
 915       3.974e-01       2.873e+00       1.388e-01           0.076           0.054           0.996       8.669e-03         -0.5334
 916       5.212e-01       2.873e+00       1.251e-01           0.143           0.063           0.988       9.001e-03         -0.3872
 917       6.450e-01       2.873e+00       1.041e-01           0.191           0.072           0.979       8.816e-03         -0.2695
 918       7.616e-01       2.873e+00       7.926e-02           0.225           0.080           0.971       8.106e-03         -0.1721
 919       8.643e-01       2.873e+00       5.401e-02           0.253           0.087           0.964       6.905e-03         -0.0824
 920       9.470e-01       2.873e+00       3.140e-02           0.275           0.093           0.957       5.278e-03          0.0147
 921       1.005e+00       2.873e+00       1.428e-02           0.292           0.098           0.951       3.314e-03          0.1096
 922       1.035e+00       2.873e+00       3.716e-03           0.436           0.145           0.888       1.206e-03          0.2495
Strip 36
 923       1.015e+00       2.934e+00      -3.055e-03           0.377           0.126          -0.917       8.236e-04          0.2542
 924       9.854e-01       2.934e+00      -1.114e-02           0.224           0.075          -0.972       2.288e-03          0.1120
 925       9.286e-01       2.934e+00      -2.369e-02           0.210           0.071          -0.975       3.652e-03          0.0015
 926       8.475e-01       2.934e+00      -4.027e-02           0.192           0.066          -0.979       4.792e-03         -0.0922
 927       7.468e-01       2.934e+00      -5.878e-02           0.171           0.060          -0.983       5.644e-03         -0.1550
 928       6.325e-01       2.934e+00      -7.694e-02           0.144           0.054          -0.988       6.160e-03         -0.2098
 929       5.111e-01       2.934e+00      -9.211e-02           0.105           0.047          -0.993       6.311e-03         -0.2702
 930       3.896e-01       2.934e+00      -1.013e-01           0.046           0.039          -0.998       6.098e-03         -0.3394
 931       2.753e-01       2.934e+00      -1.018e-01          -0.042           0.029          -0.999       5.558e-03         -0.4051
 932       1.746e-01       2.934e+00      -9.139e-02          -0.172           0.020          -0.985       4.764e-03         -0.4267
 933       9.353e-02       2.934e+00      -6.991e-02          -0.358           0.010          -0.934       3.814e-03         -0.3175
 934       3.669e-02       2.934e+00      -3.868e-02          -0.632           0.002          -0.775       2.869e-03          0.1265
 935       7.425e-03       2.934e+00      -2.104e-04          -0.941          -0.002          -0.338       2.233e-03          0.8463
 936       7.425e-03       2.934e+00       4.109e-02          -0.941           0.002           0.338       2.233e-03          0.4783
 937       3.669e-02       2.934e+00       7.949e-02          -0.631           0.013           0.776       2.865e-03         -0.5115
 938       9.353e-02       2.934e+00       1.104e-01          -0.352           0.023           0.936       3.806e-03         -0.8108
 939       1.746e-01       2.934e+00       1.310e-01          -0.159           0.033           0.987       4.756e-03         -0.7540
 940       2.753e-01       2.934e+00       1.396e-01          -0.021           0.044           0.999       5.557e-03         -0.6131
 941       3.896e-01       2.934e+00       1.361e-01           0.076           0.054           0.996       6.113e-03         -0.4676
 942       5.111e-01       2.934e+00       1.226e-01           0.143           0.063           0.988       6.347e-03         -0.3465
 943       6.325e-01       2.934e+00       1.020e-01           0.191           0.072           0.979       6.217e-03         -0.2520
 944       7.468e-01       2.934e+00       7.771e-02           0.225           0.080           0.971       5.717e-03         -0.1766
 945       8.475e-01       2.934e+00       5.295e-02           0.253           0.087           0.964       4.869e-03         -0.1116
 946       9.286e-01       2.934e+00       3.079e-02           0.275           0.093           0.957       3.722e-03         -0.0479
 947       9.854e-01       2.934e+00       1.400e-02           0.292           0.098           0.951       2.337e-03          0.0104
 948       1.015e+00       2.934e+00       3.644e-03           0.436           0.145           0.888       8.508e-04          0.1318
Strip 37
 949       1.001e+00       2.974e+00      -3.014e-03           0.377           0.126          -0.917       4.898e-04          0.1202
 950       9.723e-01       2.974e+00      -1.099e-02           0.224           0.075          -0.972       1.361e-03          0.0107
 951       9.162e-01       2.974e+00      -2.338e-02           0.210           0.071          -0.975       2.172e-03         -0.0700
 952       8.362e-01       2.974e+00      -3.973e-02           0.192           0.066          -0.979       2.850e-03         -0.1287
 953       7.369e-01       2.974e+00      -5.800e-02           0.171           0.060          -0.983       3.357e-03         -0.1646
 954       6.241e-01       2.974e+00      -7.592e-02           0.144           0.054          -0.988       3.663e-03         -0.1999
 955       5.043e-01       2.974e+00      -9.089e-02           0.105           0.047          -0.993       3.753e-03         -0.2437
 956       3.845e-01       2.974e+00      -9.999e-02           0.046           0.039          -0.998       3.627e-03         -0.2983
 957       2.716e-01       2.974e+00      -1.004e-01          -0.042           0.029          -0.999       3.306e-03         -0.3565
 958       1.723e-01       2.974e+00      -9.018e-02          -0.172           0.020          -0.985       2.834e-03         -0.3900
 959       9.229e-02       2.974e+00      -6.898e-02          -0.358           0.010          -0.934       2.268e-03         -0.3331
 960       3.621e-02       2.974e+00      -3.816e-02          -0.632           0.002          -0.775       1.706e-03         -0.0134
 961       7.326e-03       2.974e+00      -2.076e-04          -0.941          -0.002          -0.338       1.328e-03          0.5618
 962       7.326e-03       2.974e+00       4.054e-02          -0.941           0.002           0.338       1.328e-03          0.2491
 963       3.621e-02       2.974e+00       7.843e-02          -0.631           0.013           0.776       1.704e-03         -0.5433
 964       9.229e-02       2.974e+00       1.089e-01          -0.352           0.023           0.936       2.263e-03         -0.7292
 965       1.723e-01       2.974e+00       1.293e-01          -0.159           0.033           0.987       2.828e-03         -0.6473
 966       2.716e-01       2.974e+00       1.377e-01          -0.021           0.044           0.999       3.305e-03         -0.5232
 967       3.845e-01       2.974e+00       1.343e-01           0.076           0.054           0.996       3.636e-03         -0.4110
 968       5.043e-01       2.974e+00       1.210e-01           0.143           0.063           0.988       3.775e-03         -0.3254
 969       6.241e-01       2.974e+00       1.007e-01           0.191           0.072           0.979       3.698e-03         -0.2631
 970       7.369e-01       2.974e+00       7.668e-02           0.225           0.080           0.971       3.400e-03         -0.2156
 971       8.362e-01       2.974e+00       5.225e-02           0.253           0.087           0.964       2.896e-03         -0.1781
 972       9.162e-01       2.974e+00       3.038e-02           0.275           0.093           0.957       2.214e-03         -0.1575
 973       9.723e-01       2.974e+00       1.381e-02           0.292           0.098           0.951       1.390e-03         -0.2000
 974       1.001e+00       2.974e+00       3.595e-03           0.436           0.145           0.888       5.060e-04         -0.2264
Strip 38
 975       9.944e-01       2.995e+00      -2.994e-03           0.377           0.126          -0.917       1.625e-04         -0.2689
 976       9.657e-01       2.995e+00      -1.091e-02           0.224           0.075          -0.972       4.515e-04         -0.2069
 977       9.100e-01       2.995e+00      -2.322e-02           0.210           0.071          -0.975       7.207e-04         -0.1430
 978       8.306e-01       2.995e+00      -3.946e-02           0.192           0.066          -0.979       9.457e-04         -0.1528
 979       7.319e-01       2.995e+00      -5.761e-02           0.171           0.060          -0.983       1.114e-03         -0.1687
 980       6.198e-01       2.995e+00      -7.541e-02           0.144           0.054          -0.988       1.216e-03         -0.1911
 981       5.009e-01       2.995e+00      -9.027e-02           0.105           0.047          -0.993       1.245e-03         -0.2225
 982       3.819e-01       2.995e+00      -9.932e-02           0.046           0.039          -0.998       1.203e-03         -0.2651
 983       2.698e-01       2.995e+00      -9.974e-02          -0.042           0.029          -0.999       1.097e-03         -0.3152
 984       1.711e-01       2.995e+00      -8.957e-02          -0.172           0.020          -0.985       9.403e-04         -0.3545
 985       9.166e-02       2.995e+00      -6.852e-02          -0.358           0.010          -0.934       7.527e-04         -0.3331
 986       3.596e-02       2.995e+00      -3.791e-02          -0.632           0.002          -0.775       5.661e-04         -0.1365
 987       7.277e-03       2.995e+00      -2.062e-04          -0.941          -0.002          -0.338       4.408e-04          0.2052
 988       7.277e-03       2.995e+00       4.027e-02          -0.941           0.002           0.338       4.407e-04         -0.0531
 989       3.596e-02       2.995e+00       7.790e-02          -0.631           0.013           0.776       5.654e-04         -0.5641
 990       9.166e-02       2.995e+00       1.082e-01          -0.352           0.023           0.936       7.511e-04         -0.6463
 991       1.711e-01       2.995e+00       1.284e-01          -0.159           0.033           0.987       9.385e-04         -0.5582
 992       2.698e-01       2.995e+00       1.368e-01          -0.021           0.044           0.999       1.097e-03         -0.4550
 993       3.819e-01       2.995e+00       1.334e-01           0.076           0.054           0.996       1.206e-03         -0.3735
 994       5.009e-01       2.995e+00       1.202e-01           0.143           0.063           0.988       1.253e-03         -0.3185
 995       6.198e-01       2.995e+00       9.999e-02           0.191           0.072           0.979       1.227e-03         -0.2828
 996       7.319e-01       2.995e+00       7.616e-02           0.225           0.080           0.971       1.128e-03         -0.2578
 997       8.306e-01       2.995e+00       5.190e-02           0.253           0.087           0.964       9.610e-04         -0.2396
 998       9.100e-01       2.995e+00       3.017e-02           0.275           0.093           0.957       7.345e-04         -0.2394
 999       9.657e-01       2.995e+00       1.372e-02           0.292           0.098           0.951       4.612e-04         -0.3240
1000       9.944e-01       2.995e+00       3.571e-03           0.436           0.145           0.888       1.679e-04         -0.5188










